/*---------------------------------------------------------------------------*\
| =========                 |                                                 |
| \\      /  F ield         | OpenFOAM: The Open Source CFD Toolbox           |
|  \\    /   O peration     | Version:  2412                                  |
|   \\  /    A nd           | Website:  www.openfoam.com                      |
|    \\/     M anipulation  |                                                 |
\*---------------------------------------------------------------------------*/
Build  : _45e7c4a0-20241224 OPENFOAM=2412 version=2412
Arch   : "LSB;label=32;scalar=64"
Exec   : buoyantSimpleFoam
Date   : May 07 2025
Time   : 02:09:06
Host   : kamakiri
PID    : 46632
I/O    : uncollated
Case   : /mnt/c/work/001_CAE/openfoam/20250404_gjyutusyo/OpenFOAM_contents18/003_flowAroundCylinder/buoyantSimpleFoam
nProcs : 1
trapFpe: Floating point exception trapping enabled (FOAM_SIGFPE).
fileModificationChecking : Monitoring run-time modified files using timeStampMaster (fileModificationSkew 5, maxFileModificationPolls 20)
allowSystemOperations : Allowing user-supplied system call operations

// * * * * * * * * * * * * * * * * * * * * * * * * * * * * * * * * * * * * * //
Create time

Create mesh for time = 0


SIMPLE: convergence criteria
    field p_rgh	 tolerance 1e-05
    field U	 tolerance 1e-06
    field h	 tolerance 1e-05
    field "k|epsilon|omega|nuTilda"	 tolerance 1e-06

Reading thermophysical properties

Selecting thermodynamics package 
{
    type            heRhoThermo;
    mixture         pureMixture;
    transport       const;
    thermo          hConst;
    equationOfState perfectGas;
    specie          specie;
    energy          sensibleEnthalpy;
}

Reading field U

Reading/calculating face flux field phi

Creating turbulence model

Selecting turbulence model type laminar
Selecting laminar stress model Stokes

Reading g

Reading hRef
Calculating field g.h

Reading field p_rgh

No MRF models present

Radiation model not active: radiationProperties not found
Selecting radiationModel none
No finite volume options present

Starting time loop

surfaceFieldValue Xmin:
    operation     = sum


surfaceFieldValue Xmax:
    operation     = sum


forceCoeffs forces:
    rho: rhoInf
    Freestream density (rhoInf) set to 1
    Not including porosity effects
    magUInf: 0.15
    lRef   : 0.02
    Aref   : 0.0002
    rhoInf : 1
    Selecting all coefficients
    - Drag force: Cd
    - Drag force front: Cd(f)
    - Drag force rear: Cd(r)
    - Lift force: Cl
    - Lift force front: Cl(f)
    - Lift force rear: Cl(r)
    - Pitch moment: CmPitch
    - Roll moment: CmRoll
    - Yaw moment: CmYaw
    - Side force: Cs
    - Side force front: Cs(f)
    - Side force rear: Cs(r)


--> FOAM Warning : 
    From virtual bool Foam::probes::read(const Foam::dictionary&)
    in file probes/probes.C at line 414
    Only cell interpolation can be applied when not using fixedLocations. InterpolationScheme entry will be ignored
pressure pressureCoefficient1:
    Operating mode: staticCoeff
    Not including hydrostatic effects

wallHeatFlux wallHeatFlux:
    processing all (1) wall patches

Selecting heat transfer coefficient model fixedReferenceTemperature
--> FOAM Warning : 
    From void Foam::polyBoundaryMesh::calcGroupIDs() const
    in file meshes/polyMesh/polyBoundaryMesh/polyBoundaryMesh.C at line 98
    Removed group 'empty' which clashes with patch 0 of the same name.
--> FOAM Warning : 
    From Foam::labelHashSet Foam::polyBoundaryMesh::patchSet(const Foam::UList<Foam::wordRe>&, bool, bool) const
    in file meshes/polyMesh/polyBoundaryMesh/polyBoundaryMesh.C at line 1112
    Cannot find any patch or group names matching walls
--> FOAM Warning : 
    From Foam::labelHashSet Foam::polyBoundaryMesh::patchSet(const Foam::UList<Foam::wordRe>&, bool, bool) const
    in file meshes/polyMesh/polyBoundaryMesh/polyBoundaryMesh.C at line 1112
    Cannot find any patch or group names matching walls
Time = 1

smoothSolver:  Solving for Ux, Initial residual = 1, Final residual = 0.0509398, No Iterations 2
smoothSolver:  Solving for Uy, Initial residual = 1, Final residual = 0.0602922, No Iterations 2
smoothSolver:  Solving for h, Initial residual = 1, Final residual = 0.0521416, No Iterations 2
GAMG:  Solving for p_rgh, Initial residual = 0.999999, Final residual = 1.1068e-06, No Iterations 1000
time step continuity errors : sum local = 2.23668e-08, global = -4.36048e-11, cumulative = -4.36048e-11
rho min/max : 1.03571 1.14877
ExecutionTime = 3.35 s  ClockTime = 5 s

--> FOAM Warning : 
    From virtual bool Foam::functionObjects::fieldSelection::checkSelection()
    in file functionObjects/fieldSelections/fieldSelection/fieldSelection.C at line 179
    Field p not found
--> FOAM Warning : 
    From virtual bool Foam::functionObjects::solverFieldSelection::updateSelection()
    in file functionObjects/fieldSelections/solverFieldSelection/solverFieldSelection.C at line 82
    Valid solver fields are: 3(U h p_rgh)fieldMinMax fieldMinMax write:
    min(T) = 293.15 in cell 13 at location (0.0150052 0.0153028 0.005)
    max(T) = 325.15 in cell 0 at location (0.00700097 0.00713981 0.005)
    min(mag(U)) = 0 in cell 0 at location (0.00700097 0.00713981 0.005)
    max(mag(U)) = 0.16587 in cell 1562 at location (0.000112866 0.0114964 0.005)
    min(gh) = 0 in cell 0 at location (0.00720217 0.007345 0.005)
    max(gh) = 0 in cell 0 at location (0.00720217 0.007345 0.005)
    min(mag(grad(U))) = 0 in cell 6 at location (0.0100755 0.0102753 0.005)
    max(mag(grad(U))) = 521.997 in cell 6840 at location (-0.00999518 0.000294467 0.005)
    min(h) = -5000 in cell 6535 at location (-0.00305971 0.0238435 0.005)
    max(h) = 27000 in cell 0 at location (0.00700097 0.00713981 0.005)
    min(heatTransferCoeff(T)) = 0 in cell 0 at location (0.00720217 0.007345 0.005)
    max(heatTransferCoeff(T)) = 0 in cell 0 at location (0.00720217 0.007345 0.005)
    min(p) = 99997.2 in cell 1600 at location (0.0102864 0.000100988 0.005)
    max(p) = 100003 in cell 6800 at location (-0.0102864 0.000100988 0.005)
    min(p_rgh) = 99997.2 in cell 1600 at location (0.0102864 0.000100988 0.005)
    max(p_rgh) = 100003 in cell 6800 at location (-0.0102864 0.000100988 0.005)
    min(p_rghPrevIter) = 99997.2 in cell 1600 at location (0.0102864 0.000100988 0.005)
    max(p_rghPrevIter) = 100003 in cell 6800 at location (-0.0102864 0.000100988 0.005)
    min(rho) = 1.03571 in cell 0 at location (0.00700097 0.00713981 0.005)
    max(rho) = 1.14877 in cell 13 at location (0.0150052 0.0153028 0.005)
    min(rhoPrevIter) = 1.03571 in cell 0 at location (0.00700097 0.00713981 0.005)
    max(rhoPrevIter) = 1.14877 in cell 13 at location (0.0150052 0.0153028 0.005)
    min(thermo:alpha) = 0.000257143 in cell 0 at location (0.00720217 0.007345 0.005)
    max(thermo:alpha) = 0.000257143 in cell 0 at location (0.00720217 0.007345 0.005)
    min(thermo:mu) = 0.00018 in cell 0 at location (0.00720217 0.007345 0.005)
    max(thermo:mu) = 0.00018 in cell 0 at location (0.00720217 0.007345 0.005)
    min(thermo:psi) = 1.03571e-05 in cell 0 at location (0.00700097 0.00713981 0.005)
    max(thermo:psi) = 1.14877e-05 in cell 13 at location (0.0150052 0.0153028 0.005)
    min(thermo:rho) = 1.03571 in cell 0 at location (0.00700097 0.00713981 0.005)
    max(thermo:rho) = 1.14877 in cell 13 at location (0.0150052 0.0153028 0.005)
    min(wallHeatFlux) = 0 in cell 0 at location (0.00720217 0.007345 0.005)
    max(wallHeatFlux) = 0 in cell 0 at location (0.00720217 0.007345 0.005)
    min(yPlus) = 0 in cell 0 at location (0.00720217 0.007345 0.005)
    max(yPlus) = 0 in cell 0 at location (0.00720217 0.007345 0.005)

forceCoeffs forces write:
    Coefficient	Total	Pressure	Viscous	Internal
    Cd:	424.09	399.981	24.1086	0
    Cd(f):	212.045	199.991	12.0543	0
    Cd(r):	212.045	199.991	12.0543	0
    Cl:	1.75999e-05	1.69626e-05	6.37329e-07	0
    Cl(f):	1.40066e-05	8.48094e-06	5.5257e-06	0
    Cl(r):	3.5933e-06	8.48167e-06	-4.88837e-06	0
    CmPitch:	5.20667e-06	-3.66144e-10	5.20703e-06	0
    CmRoll:	-4.40058e-06	-4.24125e-06	-1.59332e-07	0
    CmYaw:	106.022	99.9953	6.02715	0
    Cs:	-7.35272e-14	-7.35272e-14	-4.07767e-22	0
    Cs(f):	106.022	99.9953	6.02715	0
    Cs(r):	-106.022	-99.9953	-6.02715	0

    writing force and moment coefficient files.

    min/max/integ(hole) = 23733.5, 24254.7, 15.0469
Time = 2

smoothSolver:  Solving for Ux, Initial residual = 0.524878, Final residual = 0.0431368, No Iterations 2
smoothSolver:  Solving for Uy, Initial residual = 0.617925, Final residual = 0.0516971, No Iterations 2
smoothSolver:  Solving for h, Initial residual = 0.173889, Final residual = 0.00950256, No Iterations 2
GAMG:  Solving for p_rgh, Initial residual = 0.0632631, Final residual = 8.10515e-07, No Iterations 15
time step continuity errors : sum local = 1.20375e-07, global = 1.37785e-08, cumulative = 1.37349e-08
rho min/max : 1.03568 1.14879
ExecutionTime = 3.45 s  ClockTime = 5 s

fieldMinMax fieldMinMax write:
    min(T) = 293.15 in cell 9280 at location (-0.0739429 0.0998007 0.005)
    max(T) = 325.15 in cell 0 at location (0.00700097 0.00713981 0.005)
    min(mag(U)) = 0 in cell 0 at location (0.00700097 0.00713981 0.005)
    max(mag(U)) = 0.210372 in cell 1482 at location (0.000564128 0.0114831 0.005)
    min(cp) = 7.4072e+06 in cell 1600 at location (0.0102864 0.000100988 0.005)
    max(cp) = 7.40762e+06 in cell 6800 at location (-0.0102864 0.000100988 0.005)
    min(mag(force)) = 0 in cell 0 at location (0.00720217 0.007345 0.005)
    max(mag(force)) = 0.196362 in cell 7760 at location (-0.00886464 0.00462693 0.005)
    min(mag(forceCoeff)) = 0 in cell 0 at location (0.00720217 0.007345 0.005)
    max(mag(forceCoeff)) = 87271.9 in cell 7760 at location (-0.00886464 0.00462693 0.005)
    min(gh) = 0 in cell 0 at location (0.00720217 0.007345 0.005)
    max(gh) = 0 in cell 0 at location (0.00720217 0.007345 0.005)
    min(mag(grad(U))) = 3.89051e-14 in cell 24559 at location (1 0.112729 0.005)
    max(mag(grad(U))) = 499.645 in cell 6720 at location (-0.000294467 0.00999518 0.005)
    min(h) = -5000 in cell 9280 at location (-0.0739429 0.0998007 0.005)
    max(h) = 27000 in cell 0 at location (0.00700097 0.00713981 0.005)
    min(heatTransferCoeff(T)) = 0 in cell 0 at location (0.00720217 0.007345 0.005)
    max(heatTransferCoeff(T)) = 0 in cell 0 at location (0.00720217 0.007345 0.005)
    min(mag(moment)) = 0 in cell 0 at location (0.00720217 0.007345 0.005)
    max(mag(moment)) = 0.000981809 in cell 7760 at location (-0.00886464 0.00462693 0.005)
    min(mag(momentCoeff)) = 0 in cell 0 at location (0.00720217 0.007345 0.005)
    max(mag(momentCoeff)) = 21818 in cell 7760 at location (-0.00886464 0.00462693 0.005)
    min(p) = 99997.8 in cell 1600 at location (0.0102864 0.000100988 0.005)
    max(p) = 100002 in cell 6800 at location (-0.0102864 0.000100988 0.005)
    min(p_rgh) = 99997.8 in cell 1600 at location (0.0102864 0.000100988 0.005)
    max(p_rgh) = 100002 in cell 6800 at location (-0.0102864 0.000100988 0.005)
    min(p_rghPrevIter) = 99997.8 in cell 1600 at location (0.0102864 0.000100988 0.005)
    max(p_rghPrevIter) = 100002 in cell 6800 at location (-0.0102864 0.000100988 0.005)
    min(rho) = 1.03568 in cell 1600 at location (0.00999903 9.81685e-05 0.005)
    max(rho) = 1.14879 in cell 6805 at location (-0.0136015 0.000133535 0.005)
    min(rhoPrevIter) = 1.03568 in cell 1600 at location (0.00999903 9.81685e-05 0.005)
    max(rhoPrevIter) = 1.14879 in cell 6805 at location (-0.0136015 0.000133535 0.005)
    min(thermo:alpha) = 0.000257143 in cell 0 at location (0.00720217 0.007345 0.005)
    max(thermo:alpha) = 0.000257143 in cell 0 at location (0.00720217 0.007345 0.005)
    min(thermo:mu) = 0.00018 in cell 0 at location (0.00720217 0.007345 0.005)
    max(thermo:mu) = 0.00018 in cell 0 at location (0.00720217 0.007345 0.005)
    min(thermo:psi) = 1.03571e-05 in cell 0 at location (0.00700097 0.00713981 0.005)
    max(thermo:psi) = 1.14877e-05 in cell 9280 at location (-0.0739429 0.0998007 0.005)
    min(thermo:rho) = 1.03568 in cell 1600 at location (0.00999903 9.81685e-05 0.005)
    max(thermo:rho) = 1.14879 in cell 6805 at location (-0.0136015 0.000133535 0.005)
    min(wallHeatFlux) = 0 in cell 0 at location (0.00720217 0.007345 0.005)
    max(wallHeatFlux) = 24254.7 in cell 8360 at location (-0.00713981 0.00700097 0.005)
    min(yPlus) = 0 in cell 0 at location (0.00720217 0.007345 0.005)
    max(yPlus) = 0 in cell 0 at location (0.00720217 0.007345 0.005)

forceCoeffs forces write:
    Coefficient	Total	Pressure	Viscous	Internal
    Cd:	334.671	317.023	17.6473	0
    Cd(f):	167.335	158.512	8.82367	0
    Cd(r):	167.335	158.512	8.82367	0
    Cl:	0.00013377	0.000134264	-4.9399e-07	0
    Cl(f):	5.67922e-05	6.71288e-05	-1.03366e-05	0
    Cl(r):	7.69782e-05	6.71356e-05	9.84263e-06	0
    CmPitch:	-1.0093e-05	-3.39882e-09	-1.00896e-05	0
    CmRoll:	-3.3443e-05	-3.35665e-05	1.23497e-07	0
    CmYaw:	83.6677	79.2559	4.41184	0
    Cs:	-7.35272e-14	-7.35272e-14	5.90569e-23	0
    Cs(f):	83.6677	79.2559	4.41184	0
    Cs(r):	-83.6677	-79.2559	-4.41184	0

    writing force and moment coefficient files.

    min/max/integ(hole) = 20065.6, 20720.3, 12.7811
Time = 3

smoothSolver:  Solving for Ux, Initial residual = 0.18738, Final residual = 0.0153791, No Iterations 2
smoothSolver:  Solving for Uy, Initial residual = 0.244982, Final residual = 0.0205041, No Iterations 2
smoothSolver:  Solving for h, Initial residual = 0.089564, Final residual = 0.00514755, No Iterations 2
GAMG:  Solving for p_rgh, Initial residual = 0.141371, Final residual = 8.31077e-07, No Iterations 17
time step continuity errors : sum local = 1.03093e-07, global = 1.31776e-08, cumulative = 2.69125e-08
rho min/max : 1.03569 1.14878
ExecutionTime = 3.54 s  ClockTime = 5 s

fieldMinMax fieldMinMax write:
    min(T) = 293.15 in cell 19680 at location (-0.0739429 -0.0998007 0.005)
    max(T) = 325.15 in cell 0 at location (0.00700097 0.00713981 0.005)
    min(mag(U)) = 0 in cell 0 at location (0.00700097 0.00713981 0.005)
    max(mag(U)) = 0.23385 in cell 1522 at location (0.000338565 0.0114919 0.005)
    min(cp) = 7.40725e+06 in cell 1600 at location (0.0102864 0.000100988 0.005)
    max(cp) = 7.40757e+06 in cell 6800 at location (-0.0102864 0.000100988 0.005)
    min(mag(force)) = 0 in cell 0 at location (0.00720217 0.007345 0.005)
    max(mag(force)) = 0.196361 in cell 7760 at location (-0.00886464 0.00462693 0.005)
    min(mag(forceCoeff)) = 0 in cell 0 at location (0.00720217 0.007345 0.005)
    max(mag(forceCoeff)) = 87271.4 in cell 7760 at location (-0.00886464 0.00462693 0.005)
    min(gh) = 0 in cell 0 at location (0.00720217 0.007345 0.005)
    max(gh) = 0 in cell 0 at location (0.00720217 0.007345 0.005)
    min(mag(grad(U))) = 3.99385e-10 in cell 21679 at location (1 0.0185615 0.005)
    max(mag(grad(U))) = 574.762 in cell 1520 at location (0.000294467 0.00999518 0.005)
    min(h) = -5000 in cell 19680 at location (-0.0739429 -0.0998007 0.005)
    max(h) = 27000 in cell 0 at location (0.00700097 0.00713981 0.005)
    min(heatTransferCoeff(T)) = 0 in cell 0 at location (0.00720217 0.007345 0.005)
    max(heatTransferCoeff(T)) = 0 in cell 0 at location (0.00720217 0.007345 0.005)
    min(mag(moment)) = 0 in cell 0 at location (0.00720217 0.007345 0.005)
    max(mag(moment)) = 0.000981803 in cell 7760 at location (-0.00886464 0.00462693 0.005)
    min(mag(momentCoeff)) = 0 in cell 0 at location (0.00720217 0.007345 0.005)
    max(mag(momentCoeff)) = 21817.8 in cell 7760 at location (-0.00886464 0.00462693 0.005)
    min(p) = 99999.8 in cell 17401 at location (-0.0108107 -0.00117204 0.005)
    max(p) = 100000 in cell 12041 at location (0.0108693 -0.000320219 0.005)
    min(p_rgh) = 99999.8 in cell 17401 at location (-0.0108107 -0.00117204 0.005)
    max(p_rgh) = 100000 in cell 12041 at location (0.0108693 -0.000320219 0.005)
    min(p_rghPrevIter) = 99999.8 in cell 17401 at location (-0.0108107 -0.00117204 0.005)
    max(p_rghPrevIter) = 100000 in cell 12041 at location (0.0108693 -0.000320219 0.005)
    min(rho) = 1.03569 in cell 1600 at location (0.00999903 9.81685e-05 0.005)
    max(rho) = 1.14878 in cell 6845 at location (-0.0135962 0.000400563 0.005)
    min(rhoPrevIter) = 1.03569 in cell 1600 at location (0.00999903 9.81685e-05 0.005)
    max(rhoPrevIter) = 1.14878 in cell 6845 at location (-0.0135962 0.000400563 0.005)
    min(thermo:alpha) = 0.000257143 in cell 0 at location (0.00720217 0.007345 0.005)
    max(thermo:alpha) = 0.000257143 in cell 0 at location (0.00720217 0.007345 0.005)
    min(thermo:mu) = 0.00018 in cell 0 at location (0.00720217 0.007345 0.005)
    max(thermo:mu) = 0.00018 in cell 0 at location (0.00720217 0.007345 0.005)
    min(thermo:psi) = 1.03571e-05 in cell 0 at location (0.00700097 0.00713981 0.005)
    max(thermo:psi) = 1.14877e-05 in cell 19680 at location (-0.0739429 -0.0998007 0.005)
    min(thermo:rho) = 1.03569 in cell 1600 at location (0.00999903 9.81685e-05 0.005)
    max(thermo:rho) = 1.14878 in cell 6845 at location (-0.0135962 0.000400563 0.005)
    min(wallHeatFlux) = 0 in cell 0 at location (0.00720217 0.007345 0.005)
    max(wallHeatFlux) = 20720.3 in cell 8360 at location (-0.00713981 0.00700097 0.005)
    min(yPlus) = 0 in cell 0 at location (0.00720217 0.007345 0.005)
    max(yPlus) = 0 in cell 0 at location (0.00720217 0.007345 0.005)

forceCoeffs forces write:
    Coefficient	Total	Pressure	Viscous	Internal
    Cd:	-8.48342	-20.6248	12.1414	0
    Cd(f):	-4.24175	-10.3125	6.07071	0
    Cd(r):	-4.24167	-10.3124	6.07071	0
    Cl:	0.000169881	0.000169042	8.38675e-07	0
    Cl(f):	6.49723e-05	8.45157e-05	-1.95434e-05	0
    Cl(r):	0.000104909	8.45265e-05	2.0382e-05	0
    CmPitch:	-1.99681e-05	-5.42056e-09	-1.99627e-05	0
    CmRoll:	-4.24723e-05	-4.22626e-05	-2.09669e-07	0
    CmYaw:	-2.12085	-5.15621	3.03536	0
    Cs:	-7.35271e-14	-7.35271e-14	2.91044e-22	0
    Cs(f):	-2.12085	-5.15621	3.03536	0
    Cs(r):	2.12085	5.15621	-3.03536	0

    writing force and moment coefficient files.

    min/max/integ(hole) = 17246.3, 17936, 11.0256
Time = 4

smoothSolver:  Solving for Ux, Initial residual = 0.0266811, Final residual = 0.0019703, No Iterations 2
smoothSolver:  Solving for Uy, Initial residual = 0.0326936, Final residual = 0.00270161, No Iterations 2
smoothSolver:  Solving for h, Initial residual = 0.0577164, Final residual = 0.00347536, No Iterations 2
GAMG:  Solving for p_rgh, Initial residual = 0.374083, Final residual = 6.79082e-07, No Iterations 19
time step continuity errors : sum local = 2.96547e-08, global = 1.73834e-09, cumulative = 2.86508e-08
rho min/max : 1.03571 1.14877
ExecutionTime = 3.65 s  ClockTime = 5 s

fieldMinMax fieldMinMax write:
    min(T) = 293.15 in cell 19680 at location (-0.0739429 -0.0998007 0.005)
    max(T) = 325.15 in cell 0 at location (0.00700097 0.00713981 0.005)
    min(mag(U)) = 0 in cell 0 at location (0.00700097 0.00713981 0.005)
    max(mag(U)) = 0.220355 in cell 6762 at location (-0.000112866 0.0114964 0.005)
    min(cp) = 7.40739e+06 in cell 17401 at location (-0.0108107 -0.00117204 0.005)
    max(cp) = 7.40743e+06 in cell 12041 at location (0.0108693 -0.000320219 0.005)
    min(mag(force)) = 0 in cell 0 at location (0.00720217 0.007345 0.005)
    max(mag(force)) = 0.196357 in cell 12960 at location (0.00886464 -0.00462693 0.005)
    min(mag(forceCoeff)) = 0 in cell 0 at location (0.00720217 0.007345 0.005)
    max(mag(forceCoeff)) = 87269.7 in cell 12960 at location (0.00886464 -0.00462693 0.005)
    min(gh) = 0 in cell 0 at location (0.00720217 0.007345 0.005)
    max(gh) = 0 in cell 0 at location (0.00720217 0.007345 0.005)
    min(mag(grad(U))) = 1.15728e-09 in cell 22079 at location (1 0.0274004 0.005)
    max(mag(grad(U))) = 574.985 in cell 6760 at location (-9.81685e-05 0.00999903 0.005)
    min(h) = -5000 in cell 19680 at location (-0.0739429 -0.0998007 0.005)
    max(h) = 27000 in cell 0 at location (0.00700097 0.00713981 0.005)
    min(heatTransferCoeff(T)) = 0 in cell 0 at location (0.00720217 0.007345 0.005)
    max(heatTransferCoeff(T)) = 0 in cell 0 at location (0.00720217 0.007345 0.005)
    min(mag(moment)) = 0 in cell 0 at location (0.00720217 0.007345 0.005)
    max(mag(moment)) = 0.000981784 in cell 12960 at location (0.00886464 -0.00462693 0.005)
    min(mag(momentCoeff)) = 0 in cell 0 at location (0.00720217 0.007345 0.005)
    max(mag(momentCoeff)) = 21817.4 in cell 12960 at location (0.00886464 -0.00462693 0.005)
    min(p) = 99998.4 in cell 17200 at location (-0.0102864 -0.000100988 0.005)
    max(p) = 100002 in cell 12000 at location (0.0102864 -0.000100988 0.005)
    min(p_rgh) = 99998.4 in cell 17200 at location (-0.0102864 -0.000100988 0.005)
    max(p_rgh) = 100002 in cell 12000 at location (0.0102864 -0.000100988 0.005)
    min(p_rghPrevIter) = 99998.4 in cell 17200 at location (-0.0102864 -0.000100988 0.005)
    max(p_rghPrevIter) = 100002 in cell 12000 at location (0.0102864 -0.000100988 0.005)
    min(rho) = 1.03571 in cell 17440 at location (-0.00991819 -0.00127275 0.005)
    max(rho) = 1.14877 in cell 12007 at location (0.015227 -0.000149494 0.005)
    min(rhoPrevIter) = 1.03571 in cell 17440 at location (-0.00991819 -0.00127275 0.005)
    max(rhoPrevIter) = 1.14877 in cell 12007 at location (0.015227 -0.000149494 0.005)
    min(thermo:alpha) = 0.000257143 in cell 0 at location (0.00720217 0.007345 0.005)
    max(thermo:alpha) = 0.000257143 in cell 0 at location (0.00720217 0.007345 0.005)
    min(thermo:mu) = 0.00018 in cell 0 at location (0.00720217 0.007345 0.005)
    max(thermo:mu) = 0.00018 in cell 0 at location (0.00720217 0.007345 0.005)
    min(thermo:psi) = 1.03571e-05 in cell 0 at location (0.00700097 0.00713981 0.005)
    max(thermo:psi) = 1.14877e-05 in cell 19680 at location (-0.0739429 -0.0998007 0.005)
    min(thermo:rho) = 1.03571 in cell 17440 at location (-0.00991819 -0.00127275 0.005)
    max(thermo:rho) = 1.14877 in cell 12007 at location (0.015227 -0.000149494 0.005)
    min(wallHeatFlux) = 0 in cell 0 at location (0.00720217 0.007345 0.005)
    max(wallHeatFlux) = 17936 in cell 8360 at location (-0.00713981 0.00700097 0.005)
    min(yPlus) = 0 in cell 0 at location (0.00720217 0.007345 0.005)
    max(yPlus) = 0 in cell 0 at location (0.00720217 0.007345 0.005)

forceCoeffs forces write:
    Coefficient	Total	Pressure	Viscous	Internal
    Cd:	-217.805	-226.355	8.54937	0
    Cd(f):	-108.903	-113.177	4.27468	0
    Cd(r):	-108.903	-113.177	4.27468	0
    Cl:	2.76786e-05	2.53874e-05	2.29115e-06	0
    Cl(f):	1.12307e-06	1.26895e-05	-1.15665e-05	0
    Cl(r):	2.65555e-05	1.26979e-05	1.38576e-05	0
    CmPitch:	-1.27162e-05	-4.18442e-09	-1.2712e-05	0
    CmRoll:	-6.92198e-06	-6.34919e-06	-5.72787e-07	0
    CmYaw:	-54.4513	-56.5887	2.13734	0
    Cs:	-7.35271e-14	-7.35271e-14	1.4541e-22	0
    Cs(f):	-54.4513	-56.5887	2.13734	0
    Cs(r):	54.4513	56.5887	-2.13734	0

    writing force and moment coefficient files.

    min/max/integ(hole) = 15066.8, 15737.7, 9.65349
Time = 5

smoothSolver:  Solving for Ux, Initial residual = 0.160478, Final residual = 0.0131123, No Iterations 2
smoothSolver:  Solving for Uy, Initial residual = 0.274066, Final residual = 0.0229427, No Iterations 2
smoothSolver:  Solving for h, Initial residual = 0.0414265, Final residual = 0.0026034, No Iterations 2
GAMG:  Solving for p_rgh, Initial residual = 0.12733, Final residual = 5.44152e-07, No Iterations 16
time step continuity errors : sum local = 6.16543e-08, global = -6.31314e-09, cumulative = 2.23377e-08
rho min/max : 1.0357 1.14878
ExecutionTime = 3.74 s  ClockTime = 5 s

fieldMinMax fieldMinMax write:
    min(T) = 293.15 in cell 5651 at location (-0.0101474 0.0161998 0.005)
    max(T) = 325.15 in cell 0 at location (0.00700097 0.00713981 0.005)
    min(mag(U)) = 0 in cell 0 at location (0.00700097 0.00713981 0.005)
    max(mag(U)) = 0.193392 in cell 1563 at location (0.000119357 0.0121571 0.005)
    min(cp) = 7.40729e+06 in cell 17200 at location (-0.0102864 -0.000100988 0.005)
    max(cp) = 7.40753e+06 in cell 12000 at location (0.0102864 -0.000100988 0.005)
    min(mag(force)) = 0 in cell 0 at location (0.00720217 0.007345 0.005)
    max(mag(force)) = 0.196359 in cell 12960 at location (0.00886464 -0.00462693 0.005)
    min(mag(forceCoeff)) = 0 in cell 0 at location (0.00720217 0.007345 0.005)
    max(mag(forceCoeff)) = 87270.8 in cell 12960 at location (0.00886464 -0.00462693 0.005)
    min(gh) = 0 in cell 0 at location (0.00720217 0.007345 0.005)
    max(gh) = 0 in cell 0 at location (0.00720217 0.007345 0.005)
    min(mag(grad(U))) = 2.05359e-09 in cell 27915 at location (0.955 -0.0503814 0.005)
    max(mag(grad(U))) = 461.876 in cell 6720 at location (-0.000294467 0.00999518 0.005)
    min(h) = -5000 in cell 5651 at location (-0.0101474 0.0161998 0.005)
    max(h) = 27000 in cell 0 at location (0.00700097 0.00713981 0.005)
    min(heatTransferCoeff(T)) = 0 in cell 0 at location (0.00720217 0.007345 0.005)
    max(heatTransferCoeff(T)) = 0 in cell 0 at location (0.00720217 0.007345 0.005)
    min(mag(moment)) = 0 in cell 0 at location (0.00720217 0.007345 0.005)
    max(mag(moment)) = 0.000981797 in cell 12960 at location (0.00886464 -0.00462693 0.005)
    min(mag(momentCoeff)) = 0 in cell 0 at location (0.00720217 0.007345 0.005)
    max(mag(momentCoeff)) = 21817.7 in cell 12960 at location (0.00886464 -0.00462693 0.005)
    min(p) = 99998.9 in cell 17200 at location (-0.0102864 -0.000100988 0.005)
    max(p) = 100001 in cell 12000 at location (0.0102864 -0.000100988 0.005)
    min(p_rgh) = 99998.9 in cell 17200 at location (-0.0102864 -0.000100988 0.005)
    max(p_rgh) = 100001 in cell 12000 at location (0.0102864 -0.000100988 0.005)
    min(p_rghPrevIter) = 99998.9 in cell 17200 at location (-0.0102864 -0.000100988 0.005)
    max(p_rghPrevIter) = 100001 in cell 12000 at location (0.0102864 -0.000100988 0.005)
    min(rho) = 1.0357 in cell 17200 at location (-0.00999903 -9.81685e-05 0.005)
    max(rho) = 1.14878 in cell 12007 at location (0.015227 -0.000149494 0.005)
    min(rhoPrevIter) = 1.0357 in cell 17200 at location (-0.00999903 -9.81685e-05 0.005)
    max(rhoPrevIter) = 1.14878 in cell 12007 at location (0.015227 -0.000149494 0.005)
    min(thermo:alpha) = 0.000257143 in cell 0 at location (0.00720217 0.007345 0.005)
    max(thermo:alpha) = 0.000257143 in cell 0 at location (0.00720217 0.007345 0.005)
    min(thermo:mu) = 0.00018 in cell 0 at location (0.00720217 0.007345 0.005)
    max(thermo:mu) = 0.00018 in cell 0 at location (0.00720217 0.007345 0.005)
    min(thermo:psi) = 1.03571e-05 in cell 0 at location (0.00700097 0.00713981 0.005)
    max(thermo:psi) = 1.14877e-05 in cell 5651 at location (-0.0101474 0.0161998 0.005)
    min(thermo:rho) = 1.0357 in cell 17200 at location (-0.00999903 -9.81685e-05 0.005)
    max(thermo:rho) = 1.14878 in cell 12007 at location (0.015227 -0.000149494 0.005)
    min(wallHeatFlux) = 0 in cell 0 at location (0.00720217 0.007345 0.005)
    max(wallHeatFlux) = 15737.7 in cell 8360 at location (-0.00713981 0.00700097 0.005)
    min(yPlus) = 0 in cell 0 at location (0.00720217 0.007345 0.005)
    max(yPlus) = 0 in cell 0 at location (0.00720217 0.007345 0.005)

forceCoeffs forces write:
    Coefficient	Total	Pressure	Viscous	Internal
    Cd:	-148.448	-155.637	7.18849	0
    Cd(f):	-74.2242	-77.8184	3.59424	0
    Cd(r):	-74.2242	-77.8185	3.59424	0
    Cl:	-0.000146643	-0.000147587	9.44336e-07	0
    Cl(f):	-7.05281e-05	-7.37946e-05	3.2665e-06	0
    Cl(r):	-7.61149e-05	-7.37928e-05	-2.32217e-06	0
    CmPitch:	2.79342e-06	-9.10353e-10	2.79433e-06	0
    CmRoll:	3.66604e-05	3.68965e-05	-2.36084e-07	0
    CmYaw:	-37.1121	-38.9092	1.79712	0
    Cs:	-7.35272e-14	-7.35272e-14	-1.37983e-22	0
    Cs(f):	-37.1121	-38.9092	1.79712	0
    Cs(r):	37.1121	38.9092	-1.79712	0

    writing force and moment coefficient files.

    min/max/integ(hole) = 13361.7, 13991.2, 8.57186
Time = 6

smoothSolver:  Solving for Ux, Initial residual = 0.148512, Final residual = 0.0121039, No Iterations 2
smoothSolver:  Solving for Uy, Initial residual = 0.275627, Final residual = 0.0229629, No Iterations 2
smoothSolver:  Solving for h, Initial residual = 0.0317206, Final residual = 0.00207198, No Iterations 2
GAMG:  Solving for p_rgh, Initial residual = 0.172145, Final residual = 8.46485e-07, No Iterations 17
time step continuity errors : sum local = 6.70856e-08, global = -7.62722e-09, cumulative = 1.47105e-08
rho min/max : 1.0357 1.14878
ExecutionTime = 3.85 s  ClockTime = 5 s

fieldMinMax fieldMinMax write:
    min(T) = 293.15 in cell 5691 at location (-0.00982736 0.0163959 0.005)
    max(T) = 325.15 in cell 0 at location (0.00700097 0.00713981 0.005)
    min(mag(U)) = 0 in cell 0 at location (0.00700097 0.00713981 0.005)
    max(mag(U)) = 0.182662 in cell 1563 at location (0.000119357 0.0121571 0.005)
    min(cp) = 7.40733e+06 in cell 17200 at location (-0.0102864 -0.000100988 0.005)
    max(cp) = 7.40749e+06 in cell 12000 at location (0.0102864 -0.000100988 0.005)
    min(mag(force)) = 0 in cell 0 at location (0.00720217 0.007345 0.005)
    max(mag(force)) = 0.196359 in cell 2560 at location (0.00886464 0.00462693 0.005)
    min(mag(forceCoeff)) = 0 in cell 0 at location (0.00720217 0.007345 0.005)
    max(mag(forceCoeff)) = 87270.4 in cell 2560 at location (0.00886464 0.00462693 0.005)
    min(gh) = 0 in cell 0 at location (0.00720217 0.007345 0.005)
    max(gh) = 0 in cell 0 at location (0.00720217 0.007345 0.005)
    min(mag(grad(U))) = 2.18507e-09 in cell 22718 at location (0.985 0.0415425 0.005)
    max(mag(grad(U))) = 325.411 in cell 6720 at location (-0.000294467 0.00999518 0.005)
    min(h) = -5000 in cell 5691 at location (-0.00982736 0.0163959 0.005)
    max(h) = 27000 in cell 0 at location (0.00700097 0.00713981 0.005)
    min(heatTransferCoeff(T)) = 0 in cell 0 at location (0.00720217 0.007345 0.005)
    max(heatTransferCoeff(T)) = 0 in cell 0 at location (0.00720217 0.007345 0.005)
    min(mag(moment)) = 0 in cell 0 at location (0.00720217 0.007345 0.005)
    max(mag(moment)) = 0.000981793 in cell 2560 at location (0.00886464 0.00462693 0.005)
    min(mag(momentCoeff)) = 0 in cell 0 at location (0.00720217 0.007345 0.005)
    max(mag(momentCoeff)) = 21817.6 in cell 2560 at location (0.00886464 0.00462693 0.005)
    min(p) = 99999.7 in cell 12002 at location (0.0114964 -0.000112866 0.005)
    max(p) = 100000 in cell 17202 at location (-0.0114964 -0.000112866 0.005)
    min(p_rgh) = 99999.7 in cell 12002 at location (0.0114964 -0.000112866 0.005)
    max(p_rgh) = 100000 in cell 17202 at location (-0.0114964 -0.000112866 0.005)
    min(p_rghPrevIter) = 99999.7 in cell 12002 at location (0.0114964 -0.000112866 0.005)
    max(p_rghPrevIter) = 100000 in cell 17202 at location (-0.0114964 -0.000112866 0.005)
    min(rho) = 1.0357 in cell 17200 at location (-0.00999903 -9.81685e-05 0.005)
    max(rho) = 1.14878 in cell 12008 at location (0.0161146 -0.000158209 0.005)
    min(rhoPrevIter) = 1.0357 in cell 17200 at location (-0.00999903 -9.81685e-05 0.005)
    max(rhoPrevIter) = 1.14878 in cell 12008 at location (0.0161146 -0.000158209 0.005)
    min(thermo:alpha) = 0.000257143 in cell 0 at location (0.00720217 0.007345 0.005)
    max(thermo:alpha) = 0.000257143 in cell 0 at location (0.00720217 0.007345 0.005)
    min(thermo:mu) = 0.00018 in cell 0 at location (0.00720217 0.007345 0.005)
    max(thermo:mu) = 0.00018 in cell 0 at location (0.00720217 0.007345 0.005)
    min(thermo:psi) = 1.03571e-05 in cell 0 at location (0.00700097 0.00713981 0.005)
    max(thermo:psi) = 1.14877e-05 in cell 5691 at location (-0.00982736 0.0163959 0.005)
    min(thermo:rho) = 1.0357 in cell 17200 at location (-0.00999903 -9.81685e-05 0.005)
    max(thermo:rho) = 1.14878 in cell 12008 at location (0.0161146 -0.000158209 0.005)
    min(wallHeatFlux) = 0 in cell 0 at location (0.00720217 0.007345 0.005)
    max(wallHeatFlux) = 13991.2 in cell 8360 at location (-0.00713981 0.00700097 0.005)
    min(yPlus) = 0 in cell 0 at location (0.00720217 0.007345 0.005)
    max(yPlus) = 0 in cell 0 at location (0.00720217 0.007345 0.005)

forceCoeffs forces write:
    Coefficient	Total	Pressure	Viscous	Internal
    Cd:	45.8334	38.4414	7.39195	0
    Cd(f):	22.9167	19.2208	3.69598	0
    Cd(r):	22.9167	19.2207	3.69597	0
    Cl:	-0.000172957	-0.000170823	-2.13376e-06	0
    Cl(f):	-7.38542e-05	-8.54101e-05	1.15559e-05	0
    Cl(r):	-9.91025e-05	-8.54129e-05	-1.36896e-05	0
    CmPitch:	1.26241e-05	1.40193e-09	1.26227e-05	0
    CmRoll:	4.32382e-05	4.27047e-05	5.33441e-07	0
    CmYaw:	11.4583	9.61036	1.84799	0
    Cs:	-7.35272e-14	-7.35272e-14	-2.47034e-22	0
    Cs(f):	11.4583	9.61036	1.84799	0
    Cs(r):	-11.4583	-9.61036	-1.84799	0

    writing force and moment coefficient files.

    min/max/integ(hole) = 12010.7, 12592.9, 7.7115
Time = 7

smoothSolver:  Solving for Ux, Initial residual = 0.0520894, Final residual = 0.00417616, No Iterations 2
smoothSolver:  Solving for Uy, Initial residual = 0.0916807, Final residual = 0.00746447, No Iterations 2
smoothSolver:  Solving for h, Initial residual = 0.0254231, Final residual = 0.00171827, No Iterations 2
GAMG:  Solving for p_rgh, Initial residual = 0.400245, Final residual = 9.14524e-07, No Iterations 18
time step continuity errors : sum local = 3.05518e-08, global = -2.11936e-09, cumulative = 1.25911e-08
rho min/max : 1.03571 1.14877
ExecutionTime = 3.95 s  ClockTime = 5 s

fieldMinMax fieldMinMax write:
    min(T) = 293.15 in cell 5692 at location (-0.0104053 0.0173601 0.005)
    max(T) = 325.15 in cell 0 at location (0.00700097 0.00713981 0.005)
    min(mag(U)) = 0 in cell 0 at location (0.00700097 0.00713981 0.005)
    max(mag(U)) = 0.191151 in cell 17083 at location (-0.000596547 -0.012143 0.005)
    min(cp) = 7.40738e+06 in cell 12002 at location (0.0114964 -0.000112866 0.005)
    max(cp) = 7.40743e+06 in cell 17202 at location (-0.0114964 -0.000112866 0.005)
    min(mag(force)) = 0 in cell 0 at location (0.00720217 0.007345 0.005)
    max(mag(force)) = 0.196357 in cell 18160 at location (-0.00886464 -0.00462693 0.005)
    min(mag(forceCoeff)) = 0 in cell 0 at location (0.00720217 0.007345 0.005)
    max(mag(forceCoeff)) = 87269.8 in cell 18160 at location (-0.00886464 -0.00462693 0.005)
    min(gh) = 0 in cell 0 at location (0.00720217 0.007345 0.005)
    max(gh) = 0 in cell 0 at location (0.00720217 0.007345 0.005)
    min(mag(grad(U))) = 1.03389e-09 in cell 29679 at location (1 -0.138587 0.005)
    max(mag(grad(U))) = 258.823 in cell 17120 at location (-0.000294467 -0.00999518 0.005)
    min(h) = -5000 in cell 5692 at location (-0.0104053 0.0173601 0.005)
    max(h) = 27000 in cell 0 at location (0.00700097 0.00713981 0.005)
    min(heatTransferCoeff(T)) = 0 in cell 0 at location (0.00720217 0.007345 0.005)
    max(heatTransferCoeff(T)) = 0 in cell 0 at location (0.00720217 0.007345 0.005)
    min(mag(moment)) = 0 in cell 0 at location (0.00720217 0.007345 0.005)
    max(mag(moment)) = 0.000981785 in cell 18160 at location (-0.00886464 -0.00462693 0.005)
    min(mag(momentCoeff)) = 0 in cell 0 at location (0.00720217 0.007345 0.005)
    max(mag(momentCoeff)) = 21817.5 in cell 18160 at location (-0.00886464 -0.00462693 0.005)
    min(p) = 99999 in cell 12000 at location (0.0102864 -0.000100988 0.005)
    max(p) = 100001 in cell 17200 at location (-0.0102864 -0.000100988 0.005)
    min(p_rgh) = 99999 in cell 12000 at location (0.0102864 -0.000100988 0.005)
    max(p_rgh) = 100001 in cell 17200 at location (-0.0102864 -0.000100988 0.005)
    min(p_rghPrevIter) = 99999 in cell 12000 at location (0.0102864 -0.000100988 0.005)
    max(p_rghPrevIter) = 100001 in cell 17200 at location (-0.0102864 -0.000100988 0.005)
    min(rho) = 1.03571 in cell 12120 at location (0.00997592 -0.00068665 0.005)
    max(rho) = 1.14877 in cell 17208 at location (-0.0161146 -0.000158209 0.005)
    min(rhoPrevIter) = 1.03571 in cell 12120 at location (0.00997592 -0.00068665 0.005)
    max(rhoPrevIter) = 1.14877 in cell 17208 at location (-0.0161146 -0.000158209 0.005)
    min(thermo:alpha) = 0.000257143 in cell 0 at location (0.00720217 0.007345 0.005)
    max(thermo:alpha) = 0.000257143 in cell 0 at location (0.00720217 0.007345 0.005)
    min(thermo:mu) = 0.00018 in cell 0 at location (0.00720217 0.007345 0.005)
    max(thermo:mu) = 0.00018 in cell 0 at location (0.00720217 0.007345 0.005)
    min(thermo:psi) = 1.03571e-05 in cell 0 at location (0.00700097 0.00713981 0.005)
    max(thermo:psi) = 1.14877e-05 in cell 5692 at location (-0.0104053 0.0173601 0.005)
    min(thermo:rho) = 1.03571 in cell 12120 at location (0.00997592 -0.00068665 0.005)
    max(thermo:rho) = 1.14877 in cell 17208 at location (-0.0161146 -0.000158209 0.005)
    min(wallHeatFlux) = 0 in cell 0 at location (0.00720217 0.007345 0.005)
    max(wallHeatFlux) = 12592.9 in cell 8360 at location (-0.00713981 0.00700097 0.005)
    min(yPlus) = 0 in cell 0 at location (0.00720217 0.007345 0.005)
    max(yPlus) = 0 in cell 0 at location (0.00720217 0.007345 0.005)

forceCoeffs forces write:
    Coefficient	Total	Pressure	Viscous	Internal
    Cd:	146.616	138.739	7.87763	0
    Cd(f):	73.3082	69.3694	3.93881	0
    Cd(r):	73.3082	69.3694	3.93881	0
    Cl:	-4.70358e-05	-4.31199e-05	-3.91589e-06	0
    Cl(f):	-1.16968e-05	-2.15587e-05	9.86186e-06	0
    Cl(r):	-3.5339e-05	-2.15613e-05	-1.37777e-05	0
    CmPitch:	1.18211e-05	1.29329e-09	1.18198e-05	0
    CmRoll:	1.1758e-05	1.0779e-05	9.78972e-07	0
    CmYaw:	36.6541	34.6847	1.96941	0
    Cs:	-7.35272e-14	-7.35272e-14	-1.18784e-22	0
    Cs(f):	36.6541	34.6847	1.96941	0
    Cs(r):	-36.6541	-34.6847	-1.96941	0

    writing force and moment coefficient files.

    min/max/integ(hole) = 10926.6, 11463.3, 7.01965
Time = 8

smoothSolver:  Solving for Ux, Initial residual = 0.11184, Final residual = 0.0092536, No Iterations 2
smoothSolver:  Solving for Uy, Initial residual = 0.170806, Final residual = 0.0144265, No Iterations 2
smoothSolver:  Solving for h, Initial residual = 0.0210733, Final residual = 0.00146694, No Iterations 2
GAMG:  Solving for p_rgh, Initial residual = 0.152642, Final residual = 7.60577e-07, No Iterations 16
time step continuity errors : sum local = 5.19764e-08, global = 5.00496e-09, cumulative = 1.75961e-08
rho min/max : 1.0357 1.14878
ExecutionTime = 4.04 s  ClockTime = 6 s

fieldMinMax fieldMinMax write:
    min(T) = 293.15 in cell 5692 at location (-0.0104053 0.0173601 0.005)
    max(T) = 325.15 in cell 0 at location (0.00700097 0.00713981 0.005)
    min(mag(U)) = 0 in cell 0 at location (0.00700097 0.00713981 0.005)
    max(mag(U)) = 0.204813 in cell 6683 at location (-0.000596547 0.012143 0.005)
    min(cp) = 7.40734e+06 in cell 12000 at location (0.0102864 -0.000100988 0.005)
    max(cp) = 7.40748e+06 in cell 17200 at location (-0.0102864 -0.000100988 0.005)
    min(mag(force)) = 0 in cell 0 at location (0.00720217 0.007345 0.005)
    max(mag(force)) = 0.196358 in cell 18160 at location (-0.00886464 -0.00462693 0.005)
    min(mag(forceCoeff)) = 0 in cell 0 at location (0.00720217 0.007345 0.005)
    max(mag(forceCoeff)) = 87270.4 in cell 18160 at location (-0.00886464 -0.00462693 0.005)
    min(gh) = 0 in cell 0 at location (0.00720217 0.007345 0.005)
    max(gh) = 0 in cell 0 at location (0.00720217 0.007345 0.005)
    min(mag(grad(U))) = 1.22837e-09 in cell 27590 at location (0.905 -0.0433103 0.005)
    max(mag(grad(U))) = 270.343 in cell 17000 at location (-0.000882381 -0.00996051 0.005)
    min(h) = -5000 in cell 5692 at location (-0.0104053 0.0173601 0.005)
    max(h) = 27000 in cell 0 at location (0.00700097 0.00713981 0.005)
    min(heatTransferCoeff(T)) = 0 in cell 0 at location (0.00720217 0.007345 0.005)
    max(heatTransferCoeff(T)) = 0 in cell 0 at location (0.00720217 0.007345 0.005)
    min(mag(moment)) = 0 in cell 0 at location (0.00720217 0.007345 0.005)
    max(mag(moment)) = 0.000981792 in cell 18160 at location (-0.00886464 -0.00462693 0.005)
    min(mag(momentCoeff)) = 0 in cell 0 at location (0.00720217 0.007345 0.005)
    max(mag(momentCoeff)) = 21817.6 in cell 18160 at location (-0.00886464 -0.00462693 0.005)
    min(p) = 99999.4 in cell 1600 at location (0.0102864 0.000100988 0.005)
    max(p) = 100001 in cell 6800 at location (-0.0102864 0.000100988 0.005)
    min(p_rgh) = 99999.4 in cell 1600 at location (0.0102864 0.000100988 0.005)
    max(p_rgh) = 100001 in cell 6800 at location (-0.0102864 0.000100988 0.005)
    min(p_rghPrevIter) = 99999.4 in cell 1600 at location (0.0102864 0.000100988 0.005)
    max(p_rghPrevIter) = 100001 in cell 6800 at location (-0.0102864 0.000100988 0.005)
    min(rho) = 1.0357 in cell 12000 at location (0.00999903 -9.81685e-05 0.005)
    max(rho) = 1.14878 in cell 17208 at location (-0.0161146 -0.000158209 0.005)
    min(rhoPrevIter) = 1.0357 in cell 12000 at location (0.00999903 -9.81685e-05 0.005)
    max(rhoPrevIter) = 1.14878 in cell 17208 at location (-0.0161146 -0.000158209 0.005)
    min(thermo:alpha) = 0.000257143 in cell 0 at location (0.00720217 0.007345 0.005)
    max(thermo:alpha) = 0.000257143 in cell 0 at location (0.00720217 0.007345 0.005)
    min(thermo:mu) = 0.00018 in cell 0 at location (0.00720217 0.007345 0.005)
    max(thermo:mu) = 0.00018 in cell 0 at location (0.00720217 0.007345 0.005)
    min(thermo:psi) = 1.03571e-05 in cell 0 at location (0.00700097 0.00713981 0.005)
    max(thermo:psi) = 1.14877e-05 in cell 5692 at location (-0.0104053 0.0173601 0.005)
    min(thermo:rho) = 1.0357 in cell 12000 at location (0.00999903 -9.81685e-05 0.005)
    max(thermo:rho) = 1.14878 in cell 17208 at location (-0.0161146 -0.000158209 0.005)
    min(wallHeatFlux) = 0 in cell 0 at location (0.00720217 0.007345 0.005)
    max(wallHeatFlux) = 11463.3 in cell 8360 at location (-0.00713981 0.00700097 0.005)
    min(yPlus) = 0 in cell 0 at location (0.00720217 0.007345 0.005)
    max(yPlus) = 0 in cell 0 at location (0.00720217 0.007345 0.005)

forceCoeffs forces write:
    Coefficient	Total	Pressure	Viscous	Internal
    Cd:	90.441	82.7714	7.66954	0
    Cd(f):	45.2205	41.3857	3.83477	0
    Cd(r):	45.2205	41.3857	3.83477	0
    Cl:	8.64717e-05	8.94516e-05	-2.97994e-06	0
    Cl(f):	4.82737e-05	4.47255e-05	3.54812e-06	0
    Cl(r):	3.8198e-05	4.47261e-05	-6.52806e-06	0
    CmPitch:	5.03782e-06	-2.76396e-10	5.03809e-06	0
    CmRoll:	-2.16186e-05	-2.23636e-05	7.44985e-07	0
    CmYaw:	22.6102	20.6929	1.91739	0
    Cs:	-7.35272e-14	-7.35272e-14	6.39437e-23	0
    Cs(f):	22.6102	20.6929	1.91739	0
    Cs(r):	-22.6102	-20.6929	-1.91739	0

    writing force and moment coefficient files.

    min/max/integ(hole) = 10045.6, 10541.2, 6.45628
Time = 9

smoothSolver:  Solving for Ux, Initial residual = 0.0518456, Final residual = 0.00427633, No Iterations 2
smoothSolver:  Solving for Uy, Initial residual = 0.0766704, Final residual = 0.00644969, No Iterations 2
smoothSolver:  Solving for h, Initial residual = 0.0179178, Final residual = 0.00127924, No Iterations 2
GAMG:  Solving for p_rgh, Initial residual = 0.257584, Final residual = 7.75593e-07, No Iterations 18
time step continuity errors : sum local = 3.16415e-08, global = 1.96269e-09, cumulative = 1.95588e-08
rho min/max : 1.03571 1.14877
ExecutionTime = 4.14 s  ClockTime = 6 s

fieldMinMax fieldMinMax write:
    min(T) = 293.15 in cell 5733 at location (-0.0106553 0.0185957 0.005)
    max(T) = 325.15 in cell 0 at location (0.00700097 0.00713981 0.005)
    min(mag(U)) = 0 in cell 0 at location (0.00700097 0.00713981 0.005)
    max(mag(U)) = 0.208611 in cell 6763 at location (-0.000119357 0.0121571 0.005)
    min(cp) = 7.40737e+06 in cell 1600 at location (0.0102864 0.000100988 0.005)
    max(cp) = 7.40745e+06 in cell 6800 at location (-0.0102864 0.000100988 0.005)
    min(mag(force)) = 0 in cell 0 at location (0.00720217 0.007345 0.005)
    max(mag(force)) = 0.196358 in cell 7760 at location (-0.00886464 0.00462693 0.005)
    min(mag(forceCoeff)) = 0 in cell 0 at location (0.00720217 0.007345 0.005)
    max(mag(forceCoeff)) = 87270.1 in cell 7760 at location (-0.00886464 0.00462693 0.005)
    min(gh) = 0 in cell 0 at location (0.00720217 0.007345 0.005)
    max(gh) = 0 in cell 0 at location (0.00720217 0.007345 0.005)
    min(mag(grad(U))) = 1.74587e-09 in cell 20879 at location (1 0.000883885 0.005)
    max(mag(grad(U))) = 299.282 in cell 17040 at location (-0.000686649 -0.00997591 0.005)
    min(h) = -5000 in cell 5733 at location (-0.0106553 0.0185957 0.005)
    max(h) = 27000 in cell 0 at location (0.00700097 0.00713981 0.005)
    min(heatTransferCoeff(T)) = 0 in cell 0 at location (0.00720217 0.007345 0.005)
    max(heatTransferCoeff(T)) = 0 in cell 0 at location (0.00720217 0.007345 0.005)
    min(mag(moment)) = 0 in cell 0 at location (0.00720217 0.007345 0.005)
    max(mag(moment)) = 0.000981788 in cell 7760 at location (-0.00886464 0.00462693 0.005)
    min(mag(momentCoeff)) = 0 in cell 0 at location (0.00720217 0.007345 0.005)
    max(mag(momentCoeff)) = 21817.5 in cell 7760 at location (-0.00886464 0.00462693 0.005)
    min(p) = 99999.8 in cell 17402 at location (-0.0114299 -0.00123917 0.005)
    max(p) = 100000 in cell 12002 at location (0.0114964 -0.000112866 0.005)
    min(p_rgh) = 99999.8 in cell 17402 at location (-0.0114299 -0.00123917 0.005)
    max(p_rgh) = 100000 in cell 12002 at location (0.0114964 -0.000112866 0.005)
    min(p_rghPrevIter) = 99999.8 in cell 17402 at location (-0.0114299 -0.00123917 0.005)
    max(p_rghPrevIter) = 100000 in cell 12002 at location (0.0114964 -0.000112866 0.005)
    min(rho) = 1.03571 in cell 1600 at location (0.00999903 9.81685e-05 0.005)
    max(rho) = 1.14877 in cell 17209 at location (-0.0170562 -0.000167456 0.005)
    min(rhoPrevIter) = 1.03571 in cell 1600 at location (0.00999903 9.81685e-05 0.005)
    max(rhoPrevIter) = 1.14877 in cell 17209 at location (-0.0170562 -0.000167456 0.005)
    min(thermo:alpha) = 0.000257143 in cell 0 at location (0.00720217 0.007345 0.005)
    max(thermo:alpha) = 0.000257143 in cell 0 at location (0.00720217 0.007345 0.005)
    min(thermo:mu) = 0.00018 in cell 0 at location (0.00720217 0.007345 0.005)
    max(thermo:mu) = 0.00018 in cell 0 at location (0.00720217 0.007345 0.005)
    min(thermo:psi) = 1.03571e-05 in cell 0 at location (0.00700097 0.00713981 0.005)
    max(thermo:psi) = 1.14877e-05 in cell 5733 at location (-0.0106553 0.0185957 0.005)
    min(thermo:rho) = 1.03571 in cell 1600 at location (0.00999903 9.81685e-05 0.005)
    max(thermo:rho) = 1.14877 in cell 17209 at location (-0.0170562 -0.000167456 0.005)
    min(wallHeatFlux) = 0 in cell 0 at location (0.00720217 0.007345 0.005)
    max(wallHeatFlux) = 10541.2 in cell 8360 at location (-0.00713981 0.00700097 0.005)
    min(yPlus) = 0 in cell 0 at location (0.00720217 0.007345 0.005)
    max(yPlus) = 0 in cell 0 at location (0.00720217 0.007345 0.005)

forceCoeffs forces write:
    Coefficient	Total	Pressure	Viscous	Internal
    Cd:	-22.1067	-28.8132	6.70648	0
    Cd(f):	-11.0534	-14.4066	3.35324	0
    Cd(r):	-11.0533	-14.4066	3.35324	0
    Cl:	0.000105792	0.000106614	-8.2208e-07	0
    Cl(f):	5.33237e-05	5.33054e-05	1.82718e-08	0
    Cl(r):	5.24681e-05	5.33084e-05	-8.40352e-07	0
    CmPitch:	4.27818e-07	-1.49371e-09	4.29312e-07	0
    CmRoll:	-2.64482e-05	-2.66537e-05	2.0552e-07	0
    CmYaw:	-5.52669	-7.20331	1.67662	0
    Cs:	-7.35271e-14	-7.35271e-14	1.10277e-22	0
    Cs(f):	-5.52669	-7.20331	1.67662	0
    Cs(r):	5.52669	7.20331	-1.67662	0

    writing force and moment coefficient files.

    min/max/integ(hole) = 9320.23, 9779.98, 5.99158
Time = 10

smoothSolver:  Solving for Ux, Initial residual = 0.0280807, Final residual = 0.00224239, No Iterations 2
smoothSolver:  Solving for Uy, Initial residual = 0.0442558, Final residual = 0.00369053, No Iterations 2
smoothSolver:  Solving for h, Initial residual = 0.0155395, Final residual = 0.00113376, No Iterations 2
GAMG:  Solving for p_rgh, Initial residual = 0.256827, Final residual = 8.03802e-07, No Iterations 17
time step continuity errors : sum local = 3.03088e-08, global = 1.45548e-09, cumulative = 2.10142e-08
rho min/max : 1.03571 1.14877
ExecutionTime = 4.24 s  ClockTime = 6 s

fieldMinMax fieldMinMax write:
    min(T) = 293.15 in cell 5733 at location (-0.0106553 0.0185957 0.005)
    max(T) = 325.15 in cell 0 at location (0.00700097 0.00713981 0.005)
    min(mag(U)) = 0 in cell 0 at location (0.00700097 0.00713981 0.005)
    max(mag(U)) = 0.201448 in cell 6763 at location (-0.000119357 0.0121571 0.005)
    min(cp) = 7.40739e+06 in cell 17402 at location (-0.0114299 -0.00123917 0.005)
    max(cp) = 7.40743e+06 in cell 12002 at location (0.0114964 -0.000112866 0.005)
    min(mag(force)) = 0 in cell 0 at location (0.00720217 0.007345 0.005)
    max(mag(force)) = 0.196357 in cell 12960 at location (0.00886464 -0.00462693 0.005)
    min(mag(forceCoeff)) = 0 in cell 0 at location (0.00720217 0.007345 0.005)
    max(mag(forceCoeff)) = 87269.7 in cell 12960 at location (0.00886464 -0.00462693 0.005)
    min(gh) = 0 in cell 0 at location (0.00720217 0.007345 0.005)
    max(gh) = 0 in cell 0 at location (0.00720217 0.007345 0.005)
    min(mag(grad(U))) = 3.74446e-09 in cell 27679 at location (1 -0.045078 0.005)
    max(mag(grad(U))) = 292.45 in cell 6640 at location (-0.000686649 0.00997591 0.005)
    min(h) = -5000 in cell 5733 at location (-0.0106553 0.0185957 0.005)
    max(h) = 27000 in cell 0 at location (0.00700097 0.00713981 0.005)
    min(heatTransferCoeff(T)) = 0 in cell 0 at location (0.00720217 0.007345 0.005)
    max(heatTransferCoeff(T)) = 0 in cell 0 at location (0.00720217 0.007345 0.005)
    min(mag(moment)) = 0 in cell 0 at location (0.00720217 0.007345 0.005)
    max(mag(moment)) = 0.000981785 in cell 12960 at location (0.00886464 -0.00462693 0.005)
    min(mag(momentCoeff)) = 0 in cell 0 at location (0.00720217 0.007345 0.005)
    max(mag(momentCoeff)) = 21817.4 in cell 12960 at location (0.00886464 -0.00462693 0.005)
    min(p) = 99999.5 in cell 17200 at location (-0.0102864 -0.000100988 0.005)
    max(p) = 100001 in cell 12000 at location (0.0102864 -0.000100988 0.005)
    min(p_rgh) = 99999.5 in cell 17200 at location (-0.0102864 -0.000100988 0.005)
    max(p_rgh) = 100001 in cell 12000 at location (0.0102864 -0.000100988 0.005)
    min(p_rghPrevIter) = 99999.5 in cell 17200 at location (-0.0102864 -0.000100988 0.005)
    max(p_rghPrevIter) = 100001 in cell 12000 at location (0.0102864 -0.000100988 0.005)
    min(rho) = 1.03571 in cell 17480 at location (-0.00989129 -0.00146723 0.005)
    max(rho) = 1.14877 in cell 12010 at location (0.018055 -0.000177257 0.005)
    min(rhoPrevIter) = 1.03571 in cell 17480 at location (-0.00989129 -0.00146723 0.005)
    max(rhoPrevIter) = 1.14877 in cell 12010 at location (0.018055 -0.000177257 0.005)
    min(thermo:alpha) = 0.000257143 in cell 0 at location (0.00720217 0.007345 0.005)
    max(thermo:alpha) = 0.000257143 in cell 0 at location (0.00720217 0.007345 0.005)
    min(thermo:mu) = 0.00018 in cell 0 at location (0.00720217 0.007345 0.005)
    max(thermo:mu) = 0.00018 in cell 0 at location (0.00720217 0.007345 0.005)
    min(thermo:psi) = 1.03571e-05 in cell 0 at location (0.00700097 0.00713981 0.005)
    max(thermo:psi) = 1.14877e-05 in cell 5733 at location (-0.0106553 0.0185957 0.005)
    min(thermo:rho) = 1.03571 in cell 17480 at location (-0.00989129 -0.00146723 0.005)
    max(thermo:rho) = 1.14877 in cell 12010 at location (0.018055 -0.000177257 0.005)
    min(wallHeatFlux) = 0 in cell 0 at location (0.00720217 0.007345 0.005)
    max(wallHeatFlux) = 9779.98 in cell 18760 at location (-0.00713981 -0.00700097 0.005)
    min(yPlus) = 0 in cell 0 at location (0.00720217 0.007345 0.005)
    max(yPlus) = 0 in cell 0 at location (0.00720217 0.007345 0.005)

forceCoeffs forces write:
    Coefficient	Total	Pressure	Viscous	Internal
    Cd:	-70.3791	-76.0067	5.62761	0
    Cd(f):	-35.1895	-38.0033	2.8138	0
    Cd(r):	-35.1895	-38.0033	2.8138	0
    Cl:	2.63742e-05	2.63394e-05	3.48286e-08	0
    Cl(f):	1.46534e-05	1.31683e-05	1.48508e-06	0
    Cl(r):	1.17208e-05	1.31711e-05	-1.45025e-06	0
    CmPitch:	1.4663e-06	-1.36594e-09	1.46766e-06	0
    CmRoll:	-6.59654e-06	-6.58783e-06	-8.70714e-09	0
    CmYaw:	-17.5948	-19.0017	1.4069	0
    Cs:	-7.35271e-14	-7.35271e-14	9.86493e-24	0
    Cs(f):	-17.5948	-19.0017	1.4069	0
    Cs(r):	17.5948	19.0017	-1.4069	0

    writing force and moment coefficient files.

    min/max/integ(hole) = 8715.46, 9144.01, 5.6036
Time = 11

smoothSolver:  Solving for Ux, Initial residual = 0.0588103, Final residual = 0.00481075, No Iterations 2
smoothSolver:  Solving for Uy, Initial residual = 0.102181, Final residual = 0.00857928, No Iterations 2
smoothSolver:  Solving for h, Initial residual = 0.0136977, Final residual = 0.0010182, No Iterations 2
GAMG:  Solving for p_rgh, Initial residual = 0.141166, Final residual = 8.1567e-07, No Iterations 16
time step continuity errors : sum local = 4.25426e-08, global = -3.58381e-09, cumulative = 1.74304e-08
rho min/max : 1.03571 1.14877
ExecutionTime = 4.33 s  ClockTime = 6 s

fieldMinMax fieldMinMax write:
    min(T) = 293.15 in cell 5733 at location (-0.0106553 0.0185957 0.005)
    max(T) = 325.15 in cell 0 at location (0.00700097 0.00713981 0.005)
    min(mag(U)) = 0 in cell 0 at location (0.00700097 0.00713981 0.005)
    max(mag(U)) = 0.193466 in cell 6764 at location (-0.000126238 0.012858 0.005)
    min(cp) = 7.40737e+06 in cell 17200 at location (-0.0102864 -0.000100988 0.005)
    max(cp) = 7.40745e+06 in cell 12000 at location (0.0102864 -0.000100988 0.005)
    min(mag(force)) = 0 in cell 0 at location (0.00720217 0.007345 0.005)
    max(mag(force)) = 0.196358 in cell 12960 at location (0.00886464 -0.00462693 0.005)
    min(mag(forceCoeff)) = 0 in cell 0 at location (0.00720217 0.007345 0.005)
    max(mag(forceCoeff)) = 87270 in cell 12960 at location (0.00886464 -0.00462693 0.005)
    min(gh) = 0 in cell 0 at location (0.00720217 0.007345 0.005)
    max(gh) = 0 in cell 0 at location (0.00720217 0.007345 0.005)
    min(mag(grad(U))) = 3.59208e-09 in cell 29199 at location (1 -0.0998007 0.005)
    max(mag(grad(U))) = 250.44 in cell 6720 at location (-0.000294467 0.00999518 0.005)
    min(h) = -5000 in cell 5733 at location (-0.0106553 0.0185957 0.005)
    max(h) = 27000 in cell 0 at location (0.00700097 0.00713981 0.005)
    min(heatTransferCoeff(T)) = 0 in cell 0 at location (0.00720217 0.007345 0.005)
    max(heatTransferCoeff(T)) = 0 in cell 0 at location (0.00720217 0.007345 0.005)
    min(mag(moment)) = 0 in cell 0 at location (0.00720217 0.007345 0.005)
    max(mag(moment)) = 0.000981788 in cell 12960 at location (0.00886464 -0.00462693 0.005)
    min(mag(momentCoeff)) = 0 in cell 0 at location (0.00720217 0.007345 0.005)
    max(mag(momentCoeff)) = 21817.5 in cell 12960 at location (0.00886464 -0.00462693 0.005)
    min(p) = 99999.8 in cell 17200 at location (-0.0102864 -0.000100988 0.005)
    max(p) = 100000 in cell 12000 at location (0.0102864 -0.000100988 0.005)
    min(p_rgh) = 99999.8 in cell 17200 at location (-0.0102864 -0.000100988 0.005)
    max(p_rgh) = 100000 in cell 12000 at location (0.0102864 -0.000100988 0.005)
    min(p_rghPrevIter) = 99999.8 in cell 17200 at location (-0.0102864 -0.000100988 0.005)
    max(p_rghPrevIter) = 100000 in cell 12000 at location (0.0102864 -0.000100988 0.005)
    min(rho) = 1.03571 in cell 17200 at location (-0.00999903 -9.81685e-05 0.005)
    max(rho) = 1.14877 in cell 12010 at location (0.018055 -0.000177257 0.005)
    min(rhoPrevIter) = 1.03571 in cell 17200 at location (-0.00999903 -9.81685e-05 0.005)
    max(rhoPrevIter) = 1.14877 in cell 12010 at location (0.018055 -0.000177257 0.005)
    min(thermo:alpha) = 0.000257143 in cell 0 at location (0.00720217 0.007345 0.005)
    max(thermo:alpha) = 0.000257143 in cell 0 at location (0.00720217 0.007345 0.005)
    min(thermo:mu) = 0.00018 in cell 0 at location (0.00720217 0.007345 0.005)
    max(thermo:mu) = 0.00018 in cell 0 at location (0.00720217 0.007345 0.005)
    min(thermo:psi) = 1.03571e-05 in cell 0 at location (0.00700097 0.00713981 0.005)
    max(thermo:psi) = 1.14877e-05 in cell 5733 at location (-0.0106553 0.0185957 0.005)
    min(thermo:rho) = 1.03571 in cell 17200 at location (-0.00999903 -9.81685e-05 0.005)
    max(thermo:rho) = 1.14877 in cell 12010 at location (0.018055 -0.000177257 0.005)
    min(wallHeatFlux) = 0 in cell 0 at location (0.00720217 0.007345 0.005)
    max(wallHeatFlux) = 9144.01 in cell 18760 at location (-0.00713981 -0.00700097 0.005)
    min(yPlus) = 0 in cell 0 at location (0.00720217 0.007345 0.005)
    max(yPlus) = 0 in cell 0 at location (0.00720217 0.007345 0.005)

forceCoeffs forces write:
    Coefficient	Total	Pressure	Viscous	Internal
    Cd:	-30.7525	-35.7985	5.04601	0
    Cd(f):	-15.3763	-17.8993	2.52301	0
    Cd(r):	-15.3763	-17.8993	2.52301	0
    Cl:	-5.8465e-05	-5.73122e-05	-1.15286e-06	0
    Cl(f):	-2.40395e-05	-2.86564e-05	4.61689e-06	0
    Cl(r):	-3.44255e-05	-2.86557e-05	-5.76975e-06	0
    CmPitch:	5.19298e-06	-3.42352e-10	5.19332e-06	0
    CmRoll:	1.4616e-05	1.43278e-05	2.88215e-07	0
    CmYaw:	-7.68813	-8.94964	1.2615	0
    Cs:	-7.35272e-14	-7.35272e-14	-1.02239e-22	0
    Cs(f):	-7.68813	-8.94964	1.2615	0
    Cs(r):	7.68813	8.94964	-1.2615	0

    writing force and moment coefficient files.

    min/max/integ(hole) = 8205.03, 8606.51, 5.27605
Time = 12

smoothSolver:  Solving for Ux, Initial residual = 0.0284206, Final residual = 0.00229656, No Iterations 2
smoothSolver:  Solving for Uy, Initial residual = 0.0496905, Final residual = 0.00411574, No Iterations 2
smoothSolver:  Solving for h, Initial residual = 0.0122392, Final residual = 0.000924469, No Iterations 2
GAMG:  Solving for p_rgh, Initial residual = 0.263842, Final residual = 9.16397e-07, No Iterations 18
time step continuity errors : sum local = 2.72417e-08, global = -1.0847e-09, cumulative = 1.63457e-08
rho min/max : 1.03571 1.14877
ExecutionTime = 4.43 s  ClockTime = 6 s

fieldMinMax fieldMinMax write:
    min(T) = 293.15 in cell 5733 at location (-0.0106553 0.0185957 0.005)
    max(T) = 325.15 in cell 0 at location (0.00700097 0.00713981 0.005)
    min(mag(U)) = 0 in cell 0 at location (0.00700097 0.00713981 0.005)
    max(mag(U)) = 0.19179 in cell 6724 at location (-0.000378659 0.012853 0.005)
    min(cp) = 7.40739e+06 in cell 17200 at location (-0.0102864 -0.000100988 0.005)
    max(cp) = 7.40743e+06 in cell 12000 at location (0.0102864 -0.000100988 0.005)
    min(mag(force)) = 0 in cell 0 at location (0.00720217 0.007345 0.005)
    max(mag(force)) = 0.196357 in cell 2560 at location (0.00886464 0.00462693 0.005)
    min(mag(forceCoeff)) = 0 in cell 0 at location (0.00720217 0.007345 0.005)
    max(mag(forceCoeff)) = 87269.8 in cell 2560 at location (0.00886464 0.00462693 0.005)
    min(gh) = 0 in cell 0 at location (0.00720217 0.007345 0.005)
    max(gh) = 0 in cell 0 at location (0.00720217 0.007345 0.005)
    min(mag(grad(U))) = 1.71633e-09 in cell 24879 at location (1 0.138588 0.005)
    max(mag(grad(U))) = 208.269 in cell 6720 at location (-0.000294467 0.00999518 0.005)
    min(h) = -5000 in cell 5733 at location (-0.0106553 0.0185957 0.005)
    max(h) = 27000 in cell 0 at location (0.00700097 0.00713981 0.005)
    min(heatTransferCoeff(T)) = 0 in cell 0 at location (0.00720217 0.007345 0.005)
    max(heatTransferCoeff(T)) = 0 in cell 0 at location (0.00720217 0.007345 0.005)
    min(mag(moment)) = 0 in cell 0 at location (0.00720217 0.007345 0.005)
    max(mag(moment)) = 0.000981785 in cell 2560 at location (0.00886464 0.00462693 0.005)
    min(mag(momentCoeff)) = 0 in cell 0 at location (0.00720217 0.007345 0.005)
    max(mag(momentCoeff)) = 21817.4 in cell 2560 at location (0.00886464 0.00462693 0.005)
    min(p) = 99999.8 in cell 12081 at location (0.0108609 -0.000533561 0.005)
    max(p) = 100000 in cell 17241 at location (-0.0108693 -0.000320219 0.005)
    min(p_rgh) = 99999.8 in cell 12081 at location (0.0108609 -0.000533561 0.005)
    max(p_rgh) = 100000 in cell 17241 at location (-0.0108693 -0.000320219 0.005)
    min(p_rghPrevIter) = 99999.8 in cell 12081 at location (0.0108609 -0.000533561 0.005)
    max(p_rghPrevIter) = 100000 in cell 17241 at location (-0.0108693 -0.000320219 0.005)
    min(rho) = 1.03571 in cell 17200 at location (-0.00999903 -9.81685e-05 0.005)
    max(rho) = 1.14877 in cell 12011 at location (0.0191146 -0.000187663 0.005)
    min(rhoPrevIter) = 1.03571 in cell 17200 at location (-0.00999903 -9.81685e-05 0.005)
    max(rhoPrevIter) = 1.14877 in cell 12011 at location (0.0191146 -0.000187663 0.005)
    min(thermo:alpha) = 0.000257143 in cell 0 at location (0.00720217 0.007345 0.005)
    max(thermo:alpha) = 0.000257143 in cell 0 at location (0.00720217 0.007345 0.005)
    min(thermo:mu) = 0.00018 in cell 0 at location (0.00720217 0.007345 0.005)
    max(thermo:mu) = 0.00018 in cell 0 at location (0.00720217 0.007345 0.005)
    min(thermo:psi) = 1.03571e-05 in cell 0 at location (0.00700097 0.00713981 0.005)
    max(thermo:psi) = 1.14877e-05 in cell 5733 at location (-0.0106553 0.0185957 0.005)
    min(thermo:rho) = 1.03571 in cell 17200 at location (-0.00999903 -9.81685e-05 0.005)
    max(thermo:rho) = 1.14877 in cell 12011 at location (0.0191146 -0.000187663 0.005)
    min(wallHeatFlux) = 0 in cell 0 at location (0.00720217 0.007345 0.005)
    max(wallHeatFlux) = 8606.51 in cell 18760 at location (-0.00713981 -0.00700097 0.005)
    min(yPlus) = 0 in cell 0 at location (0.00720217 0.007345 0.005)
    max(yPlus) = 0 in cell 0 at location (0.00720217 0.007345 0.005)

forceCoeffs forces write:
    Coefficient	Total	Pressure	Viscous	Internal
    Cd:	32.198	27.1722	5.02582	0
    Cd(f):	16.099	13.5861	2.51291	0
    Cd(r):	16.099	13.5861	2.51291	0
    Cl:	-7.92907e-05	-7.62813e-05	-3.00939e-06	0
    Cl(f):	-3.23243e-05	-3.81402e-05	5.81591e-06	0
    Cl(r):	-4.69664e-05	-3.81411e-05	-8.8253e-06	0
    CmPitch:	7.32109e-06	4.84126e-10	7.3206e-06	0
    CmRoll:	1.9823e-05	1.90707e-05	7.52347e-07	0
    CmYaw:	8.0495	6.79305	1.25646	0
    Cs:	-7.35272e-14	-7.35272e-14	-1.14404e-22	0
    Cs(f):	8.0495	6.79305	1.25646	0
    Cs(r):	-8.0495	-6.79305	-1.25646	0

    writing force and moment coefficient files.

    min/max/integ(hole) = 7769.03, 8147.38, 4.99654
Time = 13

smoothSolver:  Solving for Ux, Initial residual = 0.0239334, Final residual = 0.00196335, No Iterations 2
smoothSolver:  Solving for Uy, Initial residual = 0.0418889, Final residual = 0.00351237, No Iterations 2
smoothSolver:  Solving for h, Initial residual = 0.0110615, Final residual = 0.000847041, No Iterations 2
GAMG:  Solving for p_rgh, Initial residual = 0.32841, Final residual = 1.06961e-06, No Iterations 1000
time step continuity errors : sum local = 2.30567e-08, global = 5.00429e-11, cumulative = 1.63958e-08
rho min/max : 1.03571 1.14877
ExecutionTime = 7.21 s  ClockTime = 9 s

fieldMinMax fieldMinMax write:
    min(T) = 293.15 in cell 5734 at location (-0.0112842 0.0196933 0.005)
    max(T) = 325.15 in cell 0 at location (0.00700097 0.00713981 0.005)
    min(mag(U)) = 0 in cell 0 at location (0.00700097 0.00713981 0.005)
    max(mag(U)) = 0.195547 in cell 6724 at location (-0.000378659 0.012853 0.005)
    min(cp) = 7.40739e+06 in cell 12081 at location (0.0108609 -0.000533561 0.005)
    max(cp) = 7.40742e+06 in cell 17241 at location (-0.0108693 -0.000320219 0.005)
    min(mag(force)) = 0 in cell 0 at location (0.00720217 0.007345 0.005)
    max(mag(force)) = 0.196357 in cell 18160 at location (-0.00886464 -0.00462693 0.005)
    min(mag(forceCoeff)) = 0 in cell 0 at location (0.00720217 0.007345 0.005)
    max(mag(forceCoeff)) = 87269.7 in cell 18160 at location (-0.00886464 -0.00462693 0.005)
    min(gh) = 0 in cell 0 at location (0.00720217 0.007345 0.005)
    max(gh) = 0 in cell 0 at location (0.00720217 0.007345 0.005)
    min(mag(grad(U))) = 1.91997e-09 in cell 24959 at location (1 0.145052 0.005)
    max(mag(grad(U))) = 192.533 in cell 17000 at location (-0.000882381 -0.00996051 0.005)
    min(h) = -5000 in cell 5734 at location (-0.0112842 0.0196933 0.005)
    max(h) = 27000 in cell 0 at location (0.00700097 0.00713981 0.005)
    min(heatTransferCoeff(T)) = 0 in cell 0 at location (0.00720217 0.007345 0.005)
    max(heatTransferCoeff(T)) = 0 in cell 0 at location (0.00720217 0.007345 0.005)
    min(mag(moment)) = 0 in cell 0 at location (0.00720217 0.007345 0.005)
    max(mag(moment)) = 0.000981785 in cell 18160 at location (-0.00886464 -0.00462693 0.005)
    min(mag(momentCoeff)) = 0 in cell 0 at location (0.00720217 0.007345 0.005)
    max(mag(momentCoeff)) = 21817.4 in cell 18160 at location (-0.00886464 -0.00462693 0.005)
    min(p) = 99999.7 in cell 12000 at location (0.0102864 -0.000100988 0.005)
    max(p) = 100000 in cell 17200 at location (-0.0102864 -0.000100988 0.005)
    min(p_rgh) = 99999.7 in cell 12000 at location (0.0102864 -0.000100988 0.005)
    max(p_rgh) = 100000 in cell 17200 at location (-0.0102864 -0.000100988 0.005)
    min(p_rghPrevIter) = 99999.7 in cell 12000 at location (0.0102864 -0.000100988 0.005)
    max(p_rghPrevIter) = 100000 in cell 17200 at location (-0.0102864 -0.000100988 0.005)
    min(rho) = 1.03571 in cell 12040 at location (0.00999518 -0.000294467 0.005)
    max(rho) = 1.14877 in cell 6850 at location (-0.0180481 0.000531715 0.005)
    min(rhoPrevIter) = 1.03571 in cell 12040 at location (0.00999518 -0.000294467 0.005)
    max(rhoPrevIter) = 1.14877 in cell 6850 at location (-0.0180481 0.000531715 0.005)
    min(thermo:alpha) = 0.000257143 in cell 0 at location (0.00720217 0.007345 0.005)
    max(thermo:alpha) = 0.000257143 in cell 0 at location (0.00720217 0.007345 0.005)
    min(thermo:mu) = 0.00018 in cell 0 at location (0.00720217 0.007345 0.005)
    max(thermo:mu) = 0.00018 in cell 0 at location (0.00720217 0.007345 0.005)
    min(thermo:psi) = 1.03571e-05 in cell 0 at location (0.00700097 0.00713981 0.005)
    max(thermo:psi) = 1.14877e-05 in cell 5734 at location (-0.0112842 0.0196933 0.005)
    min(thermo:rho) = 1.03571 in cell 12040 at location (0.00999518 -0.000294467 0.005)
    max(thermo:rho) = 1.14877 in cell 6850 at location (-0.0180481 0.000531715 0.005)
    min(wallHeatFlux) = 0 in cell 0 at location (0.00720217 0.007345 0.005)
    max(wallHeatFlux) = 8147.38 in cell 18760 at location (-0.00713981 -0.00700097 0.005)
    min(yPlus) = 0 in cell 0 at location (0.00720217 0.007345 0.005)
    max(yPlus) = 0 in cell 0 at location (0.00720217 0.007345 0.005)

forceCoeffs forces write:
    Coefficient	Total	Pressure	Viscous	Internal
    Cd:	52.8053	47.635	5.17024	0
    Cd(f):	26.4027	23.8175	2.58512	0
    Cd(r):	26.4026	23.8175	2.58512	0
    Cl:	-4.07843e-05	-3.69435e-05	-3.8408e-06	0
    Cl(f):	-1.39903e-05	-1.84713e-05	4.48096e-06	0
    Cl(r):	-2.6794e-05	-1.84722e-05	-8.32176e-06	0
    CmPitch:	6.40182e-06	4.52956e-10	6.40136e-06	0
    CmRoll:	1.01972e-05	9.23698e-06	9.602e-07	0
    CmYaw:	13.2013	11.9088	1.29256	0
    Cs:	-7.35272e-14	-7.35272e-14	-3.9965e-23	0
    Cs(f):	13.2013	11.9088	1.29256	0
    Cs(r):	-13.2013	-11.9088	-1.29256	0

    writing force and moment coefficient files.

    min/max/integ(hole) = 7392.59, 7751.38, 4.75543
Time = 14

smoothSolver:  Solving for Ux, Initial residual = 0.0342736, Final residual = 0.00283213, No Iterations 2
smoothSolver:  Solving for Uy, Initial residual = 0.0556266, Final residual = 0.00470112, No Iterations 2
smoothSolver:  Solving for h, Initial residual = 0.0100935, Final residual = 0.000782012, No Iterations 2
GAMG:  Solving for p_rgh, Initial residual = 0.206174, Final residual = 9.0528e-07, No Iterations 18
time step continuity errors : sum local = 2.41704e-08, global = 8.51588e-10, cumulative = 1.72473e-08
rho min/max : 1.03571 1.14877
ExecutionTime = 7.32 s  ClockTime = 9 s

fieldMinMax fieldMinMax write:
    min(T) = 293.15 in cell 5734 at location (-0.0112842 0.0196933 0.005)
    max(T) = 325.15 in cell 0 at location (0.00700097 0.00713981 0.005)
    min(mag(U)) = 0 in cell 0 at location (0.00700097 0.00713981 0.005)
    max(mag(U)) = 0.199321 in cell 6724 at location (-0.000378659 0.012853 0.005)
    min(cp) = 7.40738e+06 in cell 12000 at location (0.0102864 -0.000100988 0.005)
    max(cp) = 7.40743e+06 in cell 17200 at location (-0.0102864 -0.000100988 0.005)
    min(mag(force)) = 0 in cell 0 at location (0.00720217 0.007345 0.005)
    max(mag(force)) = 0.196357 in cell 7760 at location (-0.00886464 0.00462693 0.005)
    min(mag(forceCoeff)) = 0 in cell 0 at location (0.00720217 0.007345 0.005)
    max(mag(forceCoeff)) = 87269.9 in cell 7760 at location (-0.00886464 0.00462693 0.005)
    min(gh) = 0 in cell 0 at location (0.00720217 0.007345 0.005)
    max(gh) = 0 in cell 0 at location (0.00720217 0.007345 0.005)
    min(mag(grad(U))) = 2.94952e-09 in cell 29599 at location (1 -0.132123 0.005)
    max(mag(grad(U))) = 199.289 in cell 16960 at location (-0.00107777 -0.00994127 0.005)
    min(h) = -5000 in cell 5734 at location (-0.0112842 0.0196933 0.005)
    max(h) = 27000 in cell 0 at location (0.00700097 0.00713981 0.005)
    min(heatTransferCoeff(T)) = 0 in cell 0 at location (0.00720217 0.007345 0.005)
    max(heatTransferCoeff(T)) = 0 in cell 0 at location (0.00720217 0.007345 0.005)
    min(mag(moment)) = 0 in cell 0 at location (0.00720217 0.007345 0.005)
    max(mag(moment)) = 0.000981786 in cell 7760 at location (-0.00886464 0.00462693 0.005)
    min(mag(momentCoeff)) = 0 in cell 0 at location (0.00720217 0.007345 0.005)
    max(mag(momentCoeff)) = 21817.5 in cell 7760 at location (-0.00886464 0.00462693 0.005)
    min(p) = 99999.9 in cell 1600 at location (0.0102864 0.000100988 0.005)
    max(p) = 100000 in cell 6800 at location (-0.0102864 0.000100988 0.005)
    min(p_rgh) = 99999.9 in cell 1600 at location (0.0102864 0.000100988 0.005)
    max(p_rgh) = 100000 in cell 6800 at location (-0.0102864 0.000100988 0.005)
    min(p_rghPrevIter) = 99999.9 in cell 1600 at location (0.0102864 0.000100988 0.005)
    max(p_rghPrevIter) = 100000 in cell 6800 at location (-0.0102864 0.000100988 0.005)
    min(rho) = 1.03571 in cell 12000 at location (0.00999903 -9.81685e-05 0.005)
    max(rho) = 1.14877 in cell 6850 at location (-0.0180481 0.000531715 0.005)
    min(rhoPrevIter) = 1.03571 in cell 12000 at location (0.00999903 -9.81685e-05 0.005)
    max(rhoPrevIter) = 1.14877 in cell 6850 at location (-0.0180481 0.000531715 0.005)
    min(thermo:alpha) = 0.000257143 in cell 0 at location (0.00720217 0.007345 0.005)
    max(thermo:alpha) = 0.000257143 in cell 0 at location (0.00720217 0.007345 0.005)
    min(thermo:mu) = 0.00018 in cell 0 at location (0.00720217 0.007345 0.005)
    max(thermo:mu) = 0.00018 in cell 0 at location (0.00720217 0.007345 0.005)
    min(thermo:psi) = 1.03571e-05 in cell 0 at location (0.00700097 0.00713981 0.005)
    max(thermo:psi) = 1.14877e-05 in cell 5734 at location (-0.0112842 0.0196933 0.005)
    min(thermo:rho) = 1.03571 in cell 12000 at location (0.00999903 -9.81685e-05 0.005)
    max(thermo:rho) = 1.14877 in cell 6850 at location (-0.0180481 0.000531715 0.005)
    min(wallHeatFlux) = 0 in cell 0 at location (0.00720217 0.007345 0.005)
    max(wallHeatFlux) = 7751.38 in cell 18760 at location (-0.00713981 -0.00700097 0.005)
    min(yPlus) = 0 in cell 0 at location (0.00720217 0.007345 0.005)
    max(yPlus) = 0 in cell 0 at location (0.00720217 0.007345 0.005)

forceCoeffs forces write:
    Coefficient	Total	Pressure	Viscous	Internal
    Cd:	25.0784	19.9885	5.08983	0
    Cd(f):	12.5392	9.99426	2.54492	0
    Cd(r):	12.5392	9.99427	2.54492	0
    Cl:	1.03557e-05	1.36421e-05	-3.28643e-06	0
    Cl(f):	9.29808e-06	6.82108e-06	2.477e-06	0
    Cl(r):	1.05757e-06	6.82101e-06	-5.76344e-06	0
    CmPitch:	4.12025e-06	3.27519e-11	4.12022e-06	0
    CmRoll:	-2.58906e-06	-3.41067e-06	8.21608e-07	0
    CmYaw:	6.26959	4.99713	1.27246	0
    Cs:	-7.35272e-14	-7.35272e-14	2.83152e-23	0
    Cs(f):	6.26959	4.99713	1.27246	0
    Cs(r):	-6.26959	-4.99713	-1.27246	0

    writing force and moment coefficient files.

    min/max/integ(hole) = 7064.25, 7406.59, 4.54527
Time = 15

smoothSolver:  Solving for Ux, Initial residual = 0.0130511, Final residual = 0.00106481, No Iterations 2
smoothSolver:  Solving for Uy, Initial residual = 0.0183166, Final residual = 0.00153319, No Iterations 2
smoothSolver:  Solving for h, Initial residual = 0.00928444, Final residual = 0.000726582, No Iterations 2
GAMG:  Solving for p_rgh, Initial residual = 0.713036, Final residual = 3.00874e-06, No Iterations 1000
time step continuity errors : sum local = 2.29575e-08, global = 3.33626e-10, cumulative = 1.7581e-08
rho min/max : 1.03571 1.14877
ExecutionTime = 10.27 s  ClockTime = 12 s

fieldMinMax fieldMinMax write:
    min(T) = 293.15 in cell 5734 at location (-0.0112842 0.0196933 0.005)
    max(T) = 325.15 in cell 0 at location (0.00700097 0.00713981 0.005)
    min(mag(U)) = 0 in cell 0 at location (0.00700097 0.00713981 0.005)
    max(mag(U)) = 0.199267 in cell 6764 at location (-0.000126238 0.012858 0.005)
    min(cp) = 7.4074e+06 in cell 1600 at location (0.0102864 0.000100988 0.005)
    max(cp) = 7.40742e+06 in cell 6800 at location (-0.0102864 0.000100988 0.005)
    min(mag(force)) = 0 in cell 0 at location (0.00720217 0.007345 0.005)
    max(mag(force)) = 0.196357 in cell 7760 at location (-0.00886464 0.00462693 0.005)
    min(mag(forceCoeff)) = 0 in cell 0 at location (0.00720217 0.007345 0.005)
    max(mag(forceCoeff)) = 87269.7 in cell 7760 at location (-0.00886464 0.00462693 0.005)
    min(gh) = 0 in cell 0 at location (0.00720217 0.007345 0.005)
    max(gh) = 0 in cell 0 at location (0.00720217 0.007345 0.005)
    min(mag(grad(U))) = 2.38965e-09 in cell 22159 at location (1 0.0291681 0.005)
    max(mag(grad(U))) = 205.875 in cell 17000 at location (-0.000882381 -0.00996051 0.005)
    min(h) = -5000 in cell 5734 at location (-0.0112842 0.0196933 0.005)
    max(h) = 27000 in cell 0 at location (0.00700097 0.00713981 0.005)
    min(heatTransferCoeff(T)) = 0 in cell 0 at location (0.00720217 0.007345 0.005)
    max(heatTransferCoeff(T)) = 0 in cell 0 at location (0.00720217 0.007345 0.005)
    min(mag(moment)) = 0 in cell 0 at location (0.00720217 0.007345 0.005)
    max(mag(moment)) = 0.000981784 in cell 7760 at location (-0.00886464 0.00462693 0.005)
    min(mag(momentCoeff)) = 0 in cell 0 at location (0.00720217 0.007345 0.005)
    max(mag(momentCoeff)) = 21817.4 in cell 7760 at location (-0.00886464 0.00462693 0.005)
    min(p) = 99999.9 in cell 17641 at location (-0.010598 -0.00243457 0.005)
    max(p) = 100000 in cell 12002 at location (0.0114964 -0.000112866 0.005)
    min(p_rgh) = 99999.9 in cell 17641 at location (-0.010598 -0.00243457 0.005)
    max(p_rgh) = 100000 in cell 12002 at location (0.0114964 -0.000112866 0.005)
    min(p_rghPrevIter) = 99999.9 in cell 17641 at location (-0.010598 -0.00243457 0.005)
    max(p_rghPrevIter) = 100000 in cell 12002 at location (0.0114964 -0.000112866 0.005)
    min(rho) = 1.03571 in cell 1600 at location (0.00999903 9.81685e-05 0.005)
    max(rho) = 1.14877 in cell 17211 at location (-0.0191146 -0.000187663 0.005)
    min(rhoPrevIter) = 1.03571 in cell 1600 at location (0.00999903 9.81685e-05 0.005)
    max(rhoPrevIter) = 1.14877 in cell 17211 at location (-0.0191146 -0.000187663 0.005)
    min(thermo:alpha) = 0.000257143 in cell 0 at location (0.00720217 0.007345 0.005)
    max(thermo:alpha) = 0.000257143 in cell 0 at location (0.00720217 0.007345 0.005)
    min(thermo:mu) = 0.00018 in cell 0 at location (0.00720217 0.007345 0.005)
    max(thermo:mu) = 0.00018 in cell 0 at location (0.00720217 0.007345 0.005)
    min(thermo:psi) = 1.03571e-05 in cell 0 at location (0.00700097 0.00713981 0.005)
    max(thermo:psi) = 1.14877e-05 in cell 5734 at location (-0.0112842 0.0196933 0.005)
    min(thermo:rho) = 1.03571 in cell 1600 at location (0.00999903 9.81685e-05 0.005)
    max(thermo:rho) = 1.14877 in cell 17211 at location (-0.0191146 -0.000187663 0.005)
    min(wallHeatFlux) = 0 in cell 0 at location (0.00720217 0.007345 0.005)
    max(wallHeatFlux) = 7406.59 in cell 18760 at location (-0.00713981 -0.00700097 0.005)
    min(yPlus) = 0 in cell 0 at location (0.00720217 0.007345 0.005)
    max(yPlus) = 0 in cell 0 at location (0.00720217 0.007345 0.005)

forceCoeffs forces write:
    Coefficient	Total	Pressure	Viscous	Internal
    Cd:	-10.5134	-15.2483	4.73493	0
    Cd(f):	-5.25669	-7.62416	2.36747	0
    Cd(r):	-5.25667	-7.62414	2.36746	0
    Cl:	3.48238e-05	3.71564e-05	-2.33257e-06	0
    Cl(f):	2.0299e-05	1.85778e-05	1.72118e-06	0
    Cl(r):	1.45249e-05	1.85786e-05	-4.05374e-06	0
    CmPitch:	2.88707e-06	-3.91593e-10	2.88746e-06	0
    CmRoll:	-8.70601e-06	-9.28915e-06	5.83141e-07	0
    CmYaw:	-2.62834	-3.81207	1.18373	0
    Cs:	-7.35272e-14	-7.35272e-14	2.80836e-23	0
    Cs(f):	-2.62834	-3.81207	1.18373	0
    Cs(r):	2.62834	3.81207	-1.18373	0

    writing force and moment coefficient files.

    min/max/integ(hole) = 6775.14, 7103.59, 4.36029
Time = 16

smoothSolver:  Solving for Ux, Initial residual = 0.0148104, Final residual = 0.00120098, No Iterations 2
smoothSolver:  Solving for Uy, Initial residual = 0.0252315, Final residual = 0.00210683, No Iterations 2
smoothSolver:  Solving for h, Initial residual = 0.00859565, Final residual = 0.000678546, No Iterations 2
GAMG:  Solving for p_rgh, Initial residual = 0.172289, Final residual = 9.66342e-07, No Iterations 16
time step continuity errors : sum local = 2.44454e-08, global = 4.98019e-10, cumulative = 1.8079e-08
rho min/max : 1.03571 1.14877
ExecutionTime = 10.36 s  ClockTime = 13 s

fieldMinMax fieldMinMax write:
    min(T) = 293.15 in cell 5775 at location (-0.0115395 0.0210882 0.005)
    max(T) = 325.15 in cell 0 at location (0.00700097 0.00713981 0.005)
    min(mag(U)) = 0 in cell 0 at location (0.00700097 0.00713981 0.005)
    max(mag(U)) = 0.196198 in cell 6764 at location (-0.000126238 0.012858 0.005)
    min(cp) = 7.4074e+06 in cell 17641 at location (-0.010598 -0.00243457 0.005)
    max(cp) = 7.40742e+06 in cell 12002 at location (0.0114964 -0.000112866 0.005)
    min(mag(force)) = 0 in cell 0 at location (0.00720217 0.007345 0.005)
    max(mag(force)) = 0.196357 in cell 12960 at location (0.00886464 -0.00462693 0.005)
    min(mag(forceCoeff)) = 0 in cell 0 at location (0.00720217 0.007345 0.005)
    max(mag(forceCoeff)) = 87269.7 in cell 12960 at location (0.00886464 -0.00462693 0.005)
    min(gh) = 0 in cell 0 at location (0.00720217 0.007345 0.005)
    max(gh) = 0 in cell 0 at location (0.00720217 0.007345 0.005)
    min(mag(grad(U))) = 2.61774e-09 in cell 22319 at location (1 0.0327037 0.005)
    max(mag(grad(U))) = 198.435 in cell 6600 at location (-0.000882381 0.00996051 0.005)
    min(h) = -5000 in cell 5775 at location (-0.0115395 0.0210882 0.005)
    max(h) = 27000 in cell 0 at location (0.00700097 0.00713981 0.005)
    min(heatTransferCoeff(T)) = 0 in cell 0 at location (0.00720217 0.007345 0.005)
    max(heatTransferCoeff(T)) = 0 in cell 0 at location (0.00720217 0.007345 0.005)
    min(mag(moment)) = 0 in cell 0 at location (0.00720217 0.007345 0.005)
    max(mag(moment)) = 0.000981784 in cell 12960 at location (0.00886464 -0.00462693 0.005)
    min(mag(momentCoeff)) = 0 in cell 0 at location (0.00720217 0.007345 0.005)
    max(mag(momentCoeff)) = 21817.4 in cell 12960 at location (0.00886464 -0.00462693 0.005)
    min(p) = 99999.8 in cell 17280 at location (-0.0102745 -0.000504757 0.005)
    max(p) = 100000 in cell 12000 at location (0.0102864 -0.000100988 0.005)
    min(p_rgh) = 99999.8 in cell 17280 at location (-0.0102745 -0.000504757 0.005)
    max(p_rgh) = 100000 in cell 12000 at location (0.0102864 -0.000100988 0.005)
    min(p_rghPrevIter) = 99999.8 in cell 17280 at location (-0.0102745 -0.000504757 0.005)
    max(p_rghPrevIter) = 100000 in cell 12000 at location (0.0102864 -0.000100988 0.005)
[...]

    min/max/integ(hole) = 5419.03, 5690.78, 3.49486
Time = 23

smoothSolver:  Solving for Ux, Initial residual = 0.00552077, Final residual = 0.000444583, No Iterations 2
smoothSolver:  Solving for Uy, Initial residual = 0.0102148, Final residual = 0.000842498, No Iterations 2
smoothSolver:  Solving for h, Initial residual = 0.00568298, Final residual = 0.000465795, No Iterations 2
GAMG:  Solving for p_rgh, Initial residual = 0.1334, Final residual = 1.71568e-06, No Iterations 1000
time step continuity errors : sum local = 2.29639e-08, global = -1.88564e-10, cumulative = 1.66755e-08
rho min/max : 1.03571 1.14877
ExecutionTime = 28.08 s  ClockTime = 30 s

fieldMinMax fieldMinMax write:
    min(T) = 293.15 in cell 5816 at location (-0.0117819 0.0225727 0.005)
    max(T) = 325.15 in cell 0 at location (0.00700097 0.00713981 0.005)
    min(mag(U)) = 0 in cell 0 at location (0.00700097 0.00713981 0.005)
    max(mag(U)) = 0.193153 in cell 6725 at location (-0.000400563 0.0135962 0.005)
    min(cp) = 7.4074e+06 in cell 5480 at location (-0.0061279 0.00826252 0.005)
    max(cp) = 7.40741e+06 in cell 12000 at location (0.0102864 -0.000100988 0.005)
    min(mag(force)) = 0 in cell 0 at location (0.00720217 0.007345 0.005)
    max(mag(force)) = 0.196357 in cell 2560 at location (0.00886464 0.00462693 0.005)
    min(mag(forceCoeff)) = 0 in cell 0 at location (0.00720217 0.007345 0.005)
    max(mag(forceCoeff)) = 87269.6 in cell 2560 at location (0.00886464 0.00462693 0.005)
    min(gh) = 0 in cell 0 at location (0.00720217 0.007345 0.005)
    max(gh) = 0 in cell 0 at location (0.00720217 0.007345 0.005)
    min(mag(grad(U))) = 4.69086e-09 in cell 27999 at location (1 -0.0521491 0.005)
    max(mag(grad(U))) = 150.792 in cell 6480 at location (-0.00146723 0.00989129 0.005)
    min(h) = -5000 in cell 5816 at location (-0.0117819 0.0225727 0.005)
    max(h) = 27000 in cell 0 at location (0.00700097 0.00713981 0.005)
    min(heatTransferCoeff(T)) = 0 in cell 0 at location (0.00720217 0.007345 0.005)
    max(heatTransferCoeff(T)) = 0 in cell 0 at location (0.00720217 0.007345 0.005)
    min(mag(moment)) = 0 in cell 0 at location (0.00720217 0.007345 0.005)
    max(mag(moment)) = 0.000981783 in cell 2560 at location (0.00886464 0.00462693 0.005)
    min(mag(momentCoeff)) = 0 in cell 0 at location (0.00720217 0.007345 0.005)
    max(mag(momentCoeff)) = 21817.4 in cell 2560 at location (0.00886464 0.00462693 0.005)
    min(p) = 100000 in cell 11600 at location (0.00190773 -0.0101085 0.005)
    max(p) = 100000 in cell 17204 at location (-0.012858 -0.000126238 0.005)
    min(p_rgh) = 100000 in cell 11600 at location (0.00190773 -0.0101085 0.005)
    max(p_rgh) = 100000 in cell 17204 at location (-0.012858 -0.000126238 0.005)
    min(p_rghPrevIter) = 100000 in cell 11600 at location (0.00190773 -0.0101085 0.005)
    max(p_rghPrevIter) = 100000 in cell 17204 at location (-0.012858 -0.000126238 0.005)
    min(rho) = 1.03571 in cell 5480 at location (-0.0059567 0.00803169 0.005)
    max(rho) = 1.14877 in cell 12016 at location (0.0254613 -0.000249973 0.005)
    min(rhoPrevIter) = 1.03571 in cell 5480 at location (-0.0059567 0.00803169 0.005)
    max(rhoPrevIter) = 1.14877 in cell 12016 at location (0.0254613 -0.000249973 0.005)
    min(thermo:alpha) = 0.000257143 in cell 0 at location (0.00720217 0.007345 0.005)
    max(thermo:alpha) = 0.000257143 in cell 0 at location (0.00720217 0.007345 0.005)
    min(thermo:mu) = 0.00018 in cell 0 at location (0.00720217 0.007345 0.005)
    max(thermo:mu) = 0.00018 in cell 0 at location (0.00720217 0.007345 0.005)
    min(thermo:psi) = 1.03571e-05 in cell 0 at location (0.00700097 0.00713981 0.005)
    max(thermo:psi) = 1.14877e-05 in cell 5816 at location (-0.0117819 0.0225727 0.005)
    min(thermo:rho) = 1.03571 in cell 5480 at location (-0.0059567 0.00803169 0.005)
    max(thermo:rho) = 1.14877 in cell 12016 at location (0.0254613 -0.000249973 0.005)
    min(wallHeatFlux) = 0 in cell 0 at location (0.00720217 0.007345 0.005)
    max(wallHeatFlux) = 5690.78 in cell 18760 at location (-0.00713981 -0.00700097 0.005)
    min(yPlus) = 0 in cell 0 at location (0.00720217 0.007345 0.005)
    max(yPlus) = 0 in cell 0 at location (0.00720217 0.007345 0.005)

forceCoeffs forces write:
    Coefficient	Total	Pressure	Viscous	Internal
    Cd:	4.94966	1.39281	3.55684	0
    Cd(f):	2.47483	0.696407	1.77842	0
    Cd(r):	2.47483	0.696408	1.77842	0
    Cl:	-1.28761e-06	2.17952e-06	-3.46713e-06	0
    Cl(f):	3.13112e-06	1.08975e-06	2.04136e-06	0
    Cl(r):	-4.41873e-06	1.08976e-06	-5.50849e-06	0
    CmPitch:	3.77492e-06	-4.51751e-12	3.77493e-06	0
    CmRoll:	3.20987e-07	-5.45795e-07	8.66781e-07	0
    CmYaw:	1.23741	0.348204	0.889211	0
    Cs:	-7.35272e-14	-7.35272e-14	-3.40433e-23	0
    Cs(f):	1.23741	0.348204	0.889211	0
    Cs(r):	-1.23741	-0.348204	-0.889211	0

    writing force and moment coefficient files.

    min/max/integ(hole) = 5284.64, 5551.85, 3.40936
Time = 24

smoothSolver:  Solving for Ux, Initial residual = 0.00293822, Final residual = 0.000232164, No Iterations 2
smoothSolver:  Solving for Uy, Initial residual = 0.00552183, Final residual = 0.000435723, No Iterations 2
smoothSolver:  Solving for h, Initial residual = 0.00542534, Final residual = 0.000446166, No Iterations 2
GAMG:  Solving for p_rgh, Initial residual = 0.194995, Final residual = 3.09976e-06, No Iterations 1000
time step continuity errors : sum local = 2.30315e-08, global = 8.74222e-11, cumulative = 1.67629e-08
rho min/max : 1.03571 1.14877
ExecutionTime = 31.1 s  ClockTime = 33 s

fieldMinMax fieldMinMax write:
    min(T) = 293.15 in cell 5816 at location (-0.0117819 0.0225727 0.005)
    max(T) = 325.15 in cell 0 at location (0.00700097 0.00713981 0.005)
    min(mag(U)) = 0 in cell 0 at location (0.00700097 0.00713981 0.005)
    max(mag(U)) = 0.193136 in cell 6725 at location (-0.000400563 0.0135962 0.005)
    min(cp) = 7.40741e+06 in cell 11600 at location (0.00190773 -0.0101085 0.005)
    max(cp) = 7.40741e+06 in cell 17204 at location (-0.012858 -0.000126238 0.005)
    min(mag(force)) = 0 in cell 0 at location (0.00720217 0.007345 0.005)
    max(mag(force)) = 0.196357 in cell 18160 at location (-0.00886464 -0.00462693 0.005)
    min(mag(forceCoeff)) = 0 in cell 0 at location (0.00720217 0.007345 0.005)
    max(mag(forceCoeff)) = 87269.6 in cell 18160 at location (-0.00886464 -0.00462693 0.005)
    min(gh) = 0 in cell 0 at location (0.00720217 0.007345 0.005)
    max(gh) = 0 in cell 0 at location (0.00720217 0.007345 0.005)
    min(mag(grad(U))) = 2.12053e-09 in cell 20959 at location (1 0.00265165 0.005)
    max(mag(grad(U))) = 145.306 in cell 6440 at location (-0.00166115 0.00986057 0.005)
    min(h) = -5000 in cell 5816 at location (-0.0117819 0.0225727 0.005)
    max(h) = 27000 in cell 0 at location (0.00700097 0.00713981 0.005)
    min(heatTransferCoeff(T)) = 0 in cell 0 at location (0.00720217 0.007345 0.005)
    max(heatTransferCoeff(T)) = 0 in cell 0 at location (0.00720217 0.007345 0.005)
    min(mag(moment)) = 0 in cell 0 at location (0.00720217 0.007345 0.005)
    max(mag(moment)) = 0.000981783 in cell 18160 at location (-0.00886464 -0.00462693 0.005)
    min(mag(momentCoeff)) = 0 in cell 0 at location (0.00720217 0.007345 0.005)
    max(mag(momentCoeff)) = 21817.4 in cell 18160 at location (-0.00886464 -0.00462693 0.005)
    min(p) = 100000 in cell 12440 at location (0.0100258 -0.00230311 0.005)
    max(p) = 100000 in cell 17200 at location (-0.0102864 -0.000100988 0.005)
    min(p_rgh) = 100000 in cell 12440 at location (0.0100258 -0.00230311 0.005)
    max(p_rgh) = 100000 in cell 17200 at location (-0.0102864 -0.000100988 0.005)
    min(p_rghPrevIter) = 100000 in cell 12440 at location (0.0100258 -0.00230311 0.005)
    max(p_rghPrevIter) = 100000 in cell 17200 at location (-0.0102864 -0.000100988 0.005)
    min(rho) = 1.03571 in cell 11600 at location (0.00185443 -0.00982606 0.005)
    max(rho) = 1.14877 in cell 17214 at location (-0.022696 -0.000222826 0.005)
    min(rhoPrevIter) = 1.03571 in cell 11600 at location (0.00185443 -0.00982606 0.005)
    max(rhoPrevIter) = 1.14877 in cell 17214 at location (-0.022696 -0.000222826 0.005)
    min(thermo:alpha) = 0.000257143 in cell 0 at location (0.00720217 0.007345 0.005)
    max(thermo:alpha) = 0.000257143 in cell 0 at location (0.00720217 0.007345 0.005)
    min(thermo:mu) = 0.00018 in cell 0 at location (0.00720217 0.007345 0.005)
    max(thermo:mu) = 0.00018 in cell 0 at location (0.00720217 0.007345 0.005)
    min(thermo:psi) = 1.03571e-05 in cell 0 at location (0.00700097 0.00713981 0.005)
    max(thermo:psi) = 1.14877e-05 in cell 5816 at location (-0.0117819 0.0225727 0.005)
    min(thermo:rho) = 1.03571 in cell 11600 at location (0.00185443 -0.00982606 0.005)
    max(thermo:rho) = 1.14877 in cell 17214 at location (-0.022696 -0.000222826 0.005)
    min(wallHeatFlux) = 0 in cell 0 at location (0.00720217 0.007345 0.005)
    max(wallHeatFlux) = 5551.85 in cell 18760 at location (-0.00713981 -0.00700097 0.005)
    min(yPlus) = 0 in cell 0 at location (0.00720217 0.007345 0.005)
    max(yPlus) = 0 in cell 0 at location (0.00720217 0.007345 0.005)

forceCoeffs forces write:
    Coefficient	Total	Pressure	Viscous	Internal
    Cd:	10.3222	6.80703	3.51517	0
    Cd(f):	5.16111	3.40352	1.75759	0
    Cd(r):	5.16109	3.40351	1.75758	0
    Cl:	-2.43162e-05	-2.05127e-05	-3.80353e-06	0
    Cl(f):	-8.36291e-06	-1.02563e-05	1.89338e-06	0
    Cl(r):	-1.59533e-05	-1.02564e-05	-5.69691e-06	0
    CmPitch:	3.79518e-06	2.74062e-11	3.79515e-06	0
    CmRoll:	6.07654e-06	5.12566e-06	9.50882e-07	0
    CmYaw:	2.58055	1.70176	0.878792	0
    Cs:	-7.35272e-14	-7.35272e-14	-2.68064e-23	0
    Cs(f):	2.58055	1.70176	0.878792	0
    Cs(r):	-2.58055	-1.70176	-0.878792	0

    writing force and moment coefficient files.

    min/max/integ(hole) = 5159.73, 5422.92, 3.32995
Time = 25

smoothSolver:  Solving for Ux, Initial residual = 0.0053265, Final residual = 0.000438404, No Iterations 2
smoothSolver:  Solving for Uy, Initial residual = 0.00817328, Final residual = 0.000674167, No Iterations 2
smoothSolver:  Solving for h, Initial residual = 0.00519081, Final residual = 0.000428173, No Iterations 2
GAMG:  Solving for p_rgh, Initial residual = 0.259644, Final residual = 4.8423e-06, No Iterations 1000
time step continuity errors : sum local = 2.27691e-08, global = -2.8597e-10, cumulative = 1.6477e-08
rho min/max : 1.03571 1.14877
ExecutionTime = 34.36 s  ClockTime = 37 s

fieldMinMax fieldMinMax write:
    min(T) = 293.15 in cell 5817 at location (-0.0124807 0.0239114 0.005)
    max(T) = 325.15 in cell 0 at location (0.00700097 0.00713981 0.005)
    min(mag(U)) = 0 in cell 0 at location (0.00700097 0.00713981 0.005)
    max(mag(U)) = 0.193417 in cell 6725 at location (-0.000400563 0.0135962 0.005)
    min(cp) = 7.4074e+06 in cell 12440 at location (0.0100258 -0.00230311 0.005)
    max(cp) = 7.40741e+06 in cell 17200 at location (-0.0102864 -0.000100988 0.005)
    min(mag(force)) = 0 in cell 0 at location (0.00720217 0.007345 0.005)
    max(mag(force)) = 0.196357 in cell 18160 at location (-0.00886464 -0.00462693 0.005)
    min(mag(forceCoeff)) = 0 in cell 0 at location (0.00720217 0.007345 0.005)
    max(mag(forceCoeff)) = 87269.6 in cell 18160 at location (-0.00886464 -0.00462693 0.005)
    min(gh) = 0 in cell 0 at location (0.00720217 0.007345 0.005)
    max(gh) = 0 in cell 0 at location (0.00720217 0.007345 0.005)
    min(mag(grad(U))) = 4.36482e-09 in cell 21199 at location (1 0.00795495 0.005)
    max(mag(grad(U))) = 143.042 in cell 6440 at location (-0.00166115 0.00986057 0.005)
    min(h) = -5000 in cell 5817 at location (-0.0124807 0.0239114 0.005)
    max(h) = 27000 in cell 0 at location (0.00700097 0.00713981 0.005)
    min(heatTransferCoeff(T)) = 0 in cell 0 at location (0.00720217 0.007345 0.005)
    max(heatTransferCoeff(T)) = 0 in cell 0 at location (0.00720217 0.007345 0.005)
    min(mag(moment)) = 0 in cell 0 at location (0.00720217 0.007345 0.005)
    max(mag(moment)) = 0.000981783 in cell 18160 at location (-0.00886464 -0.00462693 0.005)
    min(mag(momentCoeff)) = 0 in cell 0 at location (0.00720217 0.007345 0.005)
    max(mag(momentCoeff)) = 21817.4 in cell 18160 at location (-0.00886464 -0.00462693 0.005)
    min(p) = 100000 in cell 2880 at location (0.00826252 0.0061279 0.005)
    max(p) = 100000 in cell 17200 at location (-0.0102864 -0.000100988 0.005)
    min(p_rgh) = 100000 in cell 2880 at location (0.00826252 0.0061279 0.005)
    max(p_rgh) = 100000 in cell 17200 at location (-0.0102864 -0.000100988 0.005)
    min(p_rghPrevIter) = 100000 in cell 2880 at location (0.00826252 0.0061279 0.005)
    max(p_rghPrevIter) = 100000 in cell 17200 at location (-0.0102864 -0.000100988 0.005)
    min(rho) = 1.03571 in cell 12440 at location (0.00974568 -0.00223877 0.005)
    max(rho) = 1.14877 in cell 17214 at location (-0.022696 -0.000222826 0.005)
    min(rhoPrevIter) = 1.03571 in cell 12440 at location (0.00974568 -0.00223877 0.005)
    max(rhoPrevIter) = 1.14877 in cell 17214 at location (-0.022696 -0.000222826 0.005)
    min(thermo:alpha) = 0.000257143 in cell 0 at location (0.00720217 0.007345 0.005)
    max(thermo:alpha) = 0.000257143 in cell 0 at location (0.00720217 0.007345 0.005)
    min(thermo:mu) = 0.00018 in cell 0 at location (0.00720217 0.007345 0.005)
    max(thermo:mu) = 0.00018 in cell 0 at location (0.00720217 0.007345 0.005)
    min(thermo:psi) = 1.03571e-05 in cell 0 at location (0.00700097 0.00713981 0.005)
    max(thermo:psi) = 1.14877e-05 in cell 5817 at location (-0.0124807 0.0239114 0.005)
    min(thermo:rho) = 1.03571 in cell 12440 at location (0.00974568 -0.00223877 0.005)
    max(thermo:rho) = 1.14877 in cell 17214 at location (-0.022696 -0.000222826 0.005)
    min(wallHeatFlux) = 0 in cell 0 at location (0.00720217 0.007345 0.005)
    max(wallHeatFlux) = 5422.92 in cell 18760 at location (-0.00713981 -0.00700097 0.005)
    min(yPlus) = 0 in cell 0 at location (0.00720217 0.007345 0.005)
    max(yPlus) = 0 in cell 0 at location (0.00720217 0.007345 0.005)

forceCoeffs forces write:
    Coefficient	Total	Pressure	Viscous	Internal
    Cd:	9.49996	6.02032	3.47964	0
    Cd(f):	4.74999	3.01017	1.73982	0
    Cd(r):	4.74997	3.01015	1.73982	0
    Cl:	-2.99129e-05	-2.59008e-05	-4.01209e-06	0
    Cl(f):	-1.14094e-05	-1.29504e-05	1.54095e-06	0
    Cl(r):	-1.85035e-05	-1.29504e-05	-5.55305e-06	0
    CmPitch:	3.54704e-06	3.55377e-11	3.547e-06	0
    CmRoll:	7.47815e-06	6.47513e-06	1.00302e-06	0
    CmYaw:	2.37499	1.50508	0.869911	0
    Cs:	-7.35272e-14	-7.35272e-14	-1.37825e-23	0
    Cs(f):	2.37499	1.50508	0.869911	0
    Cs(r):	-2.37499	-1.50508	-0.869911	0

    writing force and moment coefficient files.

    min/max/integ(hole) = 5043.23, 5302.86, 3.25594
Time = 26

smoothSolver:  Solving for Ux, Initial residual = 0.00454305, Final residual = 0.000373229, No Iterations 2
smoothSolver:  Solving for Uy, Initial residual = 0.00597249, Final residual = 0.000491467, No Iterations 2
smoothSolver:  Solving for h, Initial residual = 0.00497614, Final residual = 0.000411598, No Iterations 2
GAMG:  Solving for p_rgh, Initial residual = 0.170057, Final residual = 3.3475e-06, No Iterations 1000
time step continuity errors : sum local = 2.29938e-08, global = -8.8623e-11, cumulative = 1.63883e-08
rho min/max : 1.03571 1.14877
ExecutionTime = 37.29 s  ClockTime = 40 s

fieldMinMax fieldMinMax write:
    min(T) = 293.15 in cell 5817 at location (-0.0124807 0.0239114 0.005)
    max(T) = 325.15 in cell 0 at location (0.00700097 0.00713981 0.005)
    min(mag(U)) = 0 in cell 0 at location (0.00700097 0.00713981 0.005)
    max(mag(U)) = 0.193372 in cell 6725 at location (-0.000400563 0.0135962 0.005)
    min(cp) = 7.4074e+06 in cell 2880 at location (0.00826252 0.0061279 0.005)
    max(cp) = 7.40741e+06 in cell 17200 at location (-0.0102864 -0.000100988 0.005)
    min(mag(force)) = 0 in cell 0 at location (0.00720217 0.007345 0.005)
    max(mag(force)) = 0.196357 in cell 7760 at location (-0.00886464 0.00462693 0.005)
    min(mag(forceCoeff)) = 0 in cell 0 at location (0.00720217 0.007345 0.005)
    max(mag(forceCoeff)) = 87269.6 in cell 7760 at location (-0.00886464 0.00462693 0.005)
    min(gh) = 0 in cell 0 at location (0.00720217 0.007345 0.005)
    max(gh) = 0 in cell 0 at location (0.00720217 0.007345 0.005)
    min(mag(grad(U))) = 2.71046e-09 in cell 21759 at location (1 0.0203293 0.005)
    max(mag(grad(U))) = 142.15 in cell 6440 at location (-0.00166115 0.00986057 0.005)
    min(h) = -5000 in cell 5817 at location (-0.0124807 0.0239114 0.005)
    max(h) = 27000 in cell 0 at location (0.00700097 0.00713981 0.005)
    min(heatTransferCoeff(T)) = 0 in cell 0 at location (0.00720217 0.007345 0.005)
    max(heatTransferCoeff(T)) = 0 in cell 0 at location (0.00720217 0.007345 0.005)
    min(mag(moment)) = 0 in cell 0 at location (0.00720217 0.007345 0.005)
    max(mag(moment)) = 0.000981783 in cell 7760 at location (-0.00886464 0.00462693 0.005)
    min(mag(momentCoeff)) = 0 in cell 0 at location (0.00720217 0.007345 0.005)
    max(mag(momentCoeff)) = 21817.4 in cell 7760 at location (-0.00886464 0.00462693 0.005)
    min(p) = 100000 in cell 1200 at location (0.00190773 0.0101085 0.005)
    max(p) = 100000 in cell 6800 at location (-0.0102864 0.000100988 0.005)
    min(p_rgh) = 100000 in cell 1200 at location (0.00190773 0.0101085 0.005)
    max(p_rgh) = 100000 in cell 6800 at location (-0.0102864 0.000100988 0.005)
    min(p_rghPrevIter) = 100000 in cell 1200 at location (0.00190773 0.0101085 0.005)
    max(p_rghPrevIter) = 100000 in cell 6800 at location (-0.0102864 0.000100988 0.005)
    min(rho) = 1.03571 in cell 2880 at location (0.00803169 0.00595671 0.005)
    max(rho) = 1.14877 in cell 17214 at location (-0.022696 -0.000222826 0.005)
    min(rhoPrevIter) = 1.03571 in cell 2880 at location (0.00803169 0.00595671 0.005)
    max(rhoPrevIter) = 1.14877 in cell 17214 at location (-0.022696 -0.000222826 0.005)
    min(thermo:alpha) = 0.000257143 in cell 0 at location (0.00720217 0.007345 0.005)
    max(thermo:alpha) = 0.000257143 in cell 0 at location (0.00720217 0.007345 0.005)
    min(thermo:mu) = 0.00018 in cell 0 at location (0.00720217 0.007345 0.005)
    max(thermo:mu) = 0.00018 in cell 0 at location (0.00720217 0.007345 0.005)
    min(thermo:psi) = 1.03571e-05 in cell 0 at location (0.00700097 0.00713981 0.005)
    max(thermo:psi) = 1.14877e-05 in cell 5817 at location (-0.0124807 0.0239114 0.005)
    min(thermo:rho) = 1.03571 in cell 2880 at location (0.00803169 0.00595671 0.005)
    max(thermo:rho) = 1.14877 in cell 17214 at location (-0.022696 -0.000222826 0.005)
    min(wallHeatFlux) = 0 in cell 0 at location (0.00720217 0.007345 0.005)
    max(wallHeatFlux) = 5302.86 in cell 18760 at location (-0.00713981 -0.00700097 0.005)
    min(yPlus) = 0 in cell 0 at location (0.00720217 0.007345 0.005)
    max(yPlus) = 0 in cell 0 at location (0.00720217 0.007345 0.005)

forceCoeffs forces write:
    Coefficient	Total	Pressure	Viscous	Internal
    Cd:	5.077	1.66574	3.41126	0
    Cd(f):	2.5385	0.832874	1.70563	0
    Cd(r):	2.5385	0.832869	1.70563	0
    Cl:	-1.49378e-05	-1.09162e-05	-4.02159e-06	0
    Cl(f):	-4.18415e-06	-5.45811e-06	1.27396e-06	0
    Cl(r):	-1.07536e-05	-5.45808e-06	-5.29555e-06	0
    CmPitch:	3.28474e-06	-1.43054e-11	3.28476e-06	0
    CmRoll:	3.73556e-06	2.73017e-06	1.0054e-06	0
    CmYaw:	1.26925	0.416436	0.852814	0
    Cs:	-7.35272e-14	-7.35272e-14	-8.62103e-24	0
    Cs(f):	1.26925	0.416436	0.852814	0
    Cs(r):	-1.26925	-0.416436	-0.852814	0

    writing force and moment coefficient files.

    min/max/integ(hole) = 4934.22, 5190.72, 3.18672
Time = 27

smoothSolver:  Solving for Ux, Initial residual = 0.0026337, Final residual = 0.000212564, No Iterations 2
smoothSolver:  Solving for Uy, Initial residual = 0.00294893, Final residual = 0.000230094, No Iterations 2
smoothSolver:  Solving for h, Initial residual = 0.00477849, Final residual = 0.000396248, No Iterations 2
